
*** ChampSim Multicore Out-of-Order Simulator ***

**************************
Prefetch will query the cache and affect the replacement policy!
**************************
Warmup Instructions: 50000000
Simulation Instructions: 200000000
Number of CPUs: 1
LLC sets: 2048
LLC ways: 16
Off-chip DRAM Size: 4096 MB Channels: 1 Width: 64-bit Data Rate: 3200 MT/s

CPU 0 runs ../traces/654.roms_s-293B.champsimtrace.xz
CPU 0 Bimodal branch predictor
Heartbeat CPU 0 instructions: 10000001 cycles: 3877647 heartbeat IPC: 2.57888 cumulative IPC: 2.57888 (Simulation time: 0 hr 0 min 23 sec) 
Heartbeat CPU 0 instructions: 20000003 cycles: 7878571 heartbeat IPC: 2.49942 cumulative IPC: 2.53853 (Simulation time: 0 hr 0 min 46 sec) 
Heartbeat CPU 0 instructions: 30000000 cycles: 11756286 heartbeat IPC: 2.57884 cumulative IPC: 2.55183 (Simulation time: 0 hr 1 min 10 sec) 
Heartbeat CPU 0 instructions: 40000003 cycles: 15757792 heartbeat IPC: 2.49906 cumulative IPC: 2.53843 (Simulation time: 0 hr 1 min 33 sec) 
Heartbeat CPU 0 instructions: 50000003 cycles: 19635294 heartbeat IPC: 2.57898 cumulative IPC: 2.54644 (Simulation time: 0 hr 1 min 56 sec) 

Warmup complete CPU 0 instructions: 50000003 cycles: 19635294 (Simulation time: 0 hr 1 min 56 sec) 

Heartbeat CPU 0 instructions: 60000002 cycles: 25412453 heartbeat IPC: 1.73095 cumulative IPC: 1.73095 (Simulation time: 0 hr 2 min 21 sec) 
Heartbeat CPU 0 instructions: 70000003 cycles: 30596886 heartbeat IPC: 1.92885 cumulative IPC: 1.82455 (Simulation time: 0 hr 2 min 45 sec) 
Heartbeat CPU 0 instructions: 80000002 cycles: 36270530 heartbeat IPC: 1.76254 cumulative IPC: 1.8034 (Simulation time: 0 hr 3 min 10 sec) 
Heartbeat CPU 0 instructions: 90000002 cycles: 41617685 heartbeat IPC: 1.87015 cumulative IPC: 1.81964 (Simulation time: 0 hr 3 min 34 sec) 
Heartbeat CPU 0 instructions: 100000002 cycles: 47106772 heartbeat IPC: 1.8218 cumulative IPC: 1.82007 (Simulation time: 0 hr 3 min 58 sec) 
Heartbeat CPU 0 instructions: 110000000 cycles: 52609048 heartbeat IPC: 1.81743 cumulative IPC: 1.81963 (Simulation time: 0 hr 4 min 22 sec) 
Heartbeat CPU 0 instructions: 120000000 cycles: 57884179 heartbeat IPC: 1.89569 cumulative IPC: 1.83012 (Simulation time: 0 hr 4 min 45 sec) 
Heartbeat CPU 0 instructions: 130000000 cycles: 64047685 heartbeat IPC: 1.62245 cumulative IPC: 1.8013 (Simulation time: 0 hr 5 min 8 sec) 
Heartbeat CPU 0 instructions: 140000003 cycles: 70085136 heartbeat IPC: 1.65633 cumulative IPC: 1.78395 (Simulation time: 0 hr 5 min 31 sec) 
Heartbeat CPU 0 instructions: 150000000 cycles: 76151507 heartbeat IPC: 1.64843 cumulative IPC: 1.7694 (Simulation time: 0 hr 5 min 54 sec) 
Heartbeat CPU 0 instructions: 160000000 cycles: 82210678 heartbeat IPC: 1.65039 cumulative IPC: 1.75788 (Simulation time: 0 hr 6 min 17 sec) 
Heartbeat CPU 0 instructions: 170000003 cycles: 88275046 heartbeat IPC: 1.64898 cumulative IPC: 1.74826 (Simulation time: 0 hr 6 min 40 sec) 
Heartbeat CPU 0 instructions: 180000001 cycles: 94338830 heartbeat IPC: 1.64913 cumulative IPC: 1.74021 (Simulation time: 0 hr 7 min 3 sec) 
Heartbeat CPU 0 instructions: 190000003 cycles: 100446000 heartbeat IPC: 1.63742 cumulative IPC: 1.73244 (Simulation time: 0 hr 7 min 26 sec) 
Heartbeat CPU 0 instructions: 200000001 cycles: 106524135 heartbeat IPC: 1.64524 cumulative IPC: 1.72634 (Simulation time: 0 hr 7 min 48 sec) 
Heartbeat CPU 0 instructions: 210000000 cycles: 112541699 heartbeat IPC: 1.6618 cumulative IPC: 1.72216 (Simulation time: 0 hr 8 min 11 sec) 
Heartbeat CPU 0 instructions: 220000000 cycles: 118539365 heartbeat IPC: 1.66732 cumulative IPC: 1.71884 (Simulation time: 0 hr 8 min 33 sec) 
Heartbeat CPU 0 instructions: 230000000 cycles: 124548413 heartbeat IPC: 1.66416 cumulative IPC: 1.71571 (Simulation time: 0 hr 8 min 56 sec) 
Heartbeat CPU 0 instructions: 240000001 cycles: 130568515 heartbeat IPC: 1.6611 cumulative IPC: 1.71274 (Simulation time: 0 hr 9 min 18 sec) 
Heartbeat CPU 0 instructions: 250000001 cycles: 136593916 heartbeat IPC: 1.65964 cumulative IPC: 1.71001 (Simulation time: 0 hr 9 min 40 sec) 
Finished CPU 0 instructions: 200000002 cycles: 116958623 cumulative IPC: 1.71001 (Simulation time: 0 hr 9 min 40 sec) 

ChampSim completed all CPUs

Region of Interest Statistics

CPU 0 cumulative IPC: 1.71001 instructions: 200000002 cycles: 116958623
L1D TOTAL     ACCESS:   57619195  HIT:   54957272  MISS:    2661923
L1D LOAD      ACCESS:   44811323  HIT:   44019377  MISS:     791946
L1D RFO       ACCESS:   10210861  HIT:    9812140  MISS:     398721
L1D PREFETCH  ACCESS:    2597011  HIT:    1125755  MISS:    1471256
L1D WRITEBACK ACCESS:          0  HIT:          0  MISS:          0
L1D PREFETCH  REQUESTED:    5625634  ISSUED:    5625634  USEFUL:    1396490  USELESS:     216359  LATE:          0
L1D AVERAGE MISS LATENCY: 156.414 cycles
L1D AVERAGE LOAD MISS LATENCY: 42.1487 cycles
L1D AVERAGE RFO MISS LATENCY: 293.217 cycles
L1D AVERAGE PREFETCH MISS LATENCY: 180.845 cycles
L1D AVERAGE WRITEBACK MISS LATENCY: -nan cycles
L1I TOTAL     ACCESS:   31877339  HIT:   31877166  MISS:        173
L1I LOAD      ACCESS:   31877339  HIT:   31877166  MISS:        173
L1I RFO       ACCESS:          0  HIT:          0  MISS:          0
L1I PREFETCH  ACCESS:          0  HIT:          0  MISS:          0
L1I WRITEBACK ACCESS:          0  HIT:          0  MISS:          0
L1I PREFETCH  REQUESTED:          0  ISSUED:          0  USEFUL:          0  USELESS:          0  LATE:          0
L1I AVERAGE MISS LATENCY: 256.896 cycles
L1I AVERAGE LOAD MISS LATENCY: 256.896 cycles
L1I AVERAGE RFO MISS LATENCY: -nan cycles
L1I AVERAGE PREFETCH MISS LATENCY: -nan cycles
L1I AVERAGE WRITEBACK MISS LATENCY: -nan cycles
L2C TOTAL     ACCESS:    5304084  HIT:    1739391  MISS:    3564693
L2C LOAD      ACCESS:     770888  HIT:     664849  MISS:     106039
L2C RFO       ACCESS:     398683  HIT:      30005  MISS:     368678
L2C PREFETCH  ACCESS:    3691241  HIT:     618147  MISS:    3073094
L2C WRITEBACK ACCESS:     443272  HIT:     426390  MISS:      16882
L2C PREFETCH  REQUESTED:          0  ISSUED:          0  USEFUL:     795236  USELESS:    2599096  LATE:          0
L2C AVERAGE MISS LATENCY: 217.707 cycles
L2C AVERAGE LOAD MISS LATENCY: 180.696 cycles
L2C AVERAGE RFO MISS LATENCY: 294.088 cycles
L2C AVERAGE PREFETCH MISS LATENCY: 211.017 cycles
L2C AVERAGE WRITEBACK MISS LATENCY: 0 cycles
LLC TOTAL     ACCESS:    3966449  HIT:    1012597  MISS:    2953852
LLC LOAD      ACCESS:     105378  HIT:      15222  MISS:      90156
LLC RFO       ACCESS:     368678  HIT:      32500  MISS:     336178
LLC PREFETCH  ACCESS:    3075383  HIT:     558810  MISS:    2516573
LLC WRITEBACK ACCESS:     417010  HIT:     406065  MISS:      10945
LLC PREFETCH  REQUESTED:          0  ISSUED:          0  USEFUL:      34451  USELESS:    2700030  LATE:          0
LLC AVERAGE MISS LATENCY: 223.281 cycles
LLC AVERAGE LOAD MISS LATENCY: 174.158 cycles
LLC AVERAGE RFO MISS LATENCY: 287.847 cycles
LLC AVERAGE PREFETCH MISS LATENCY: 217.386 cycles
LLC AVERAGE WRITEBACK MISS LATENCY: 0 cycles
Major fault: 0 Minor fault: 52760
L1D WB Stall Cycle: 632445

DRAM Statistics
 CHANNEL 0
 RQ ROW_BUFFER_HIT:    2267931  ROW_BUFFER_MISS:     674488
 WQ ROW_BUFFER_HIT:     150277  ROW_BUFFER_MISS:     263134  FULL:        119

 DBUS_CONGESTED:    2482698
 AVG_CONGESTED_CYCLE: 6

CPU 0 Branch Prediction Accuracy: 99.9081% MPKI: 0.03263 Average ROB Occupancy at Mispredict: 256.542

Branch types
NOT_BRANCH: 192901060 96.4505%
BRANCH_DIRECT_JUMP: 147 7.35e-05%
BRANCH_INDIRECT: 0 0%
BRANCH_CONDITIONAL: 7098487 3.54924%
BRANCH_DIRECT_CALL: 129 6.45e-05%
BRANCH_INDIRECT_CALL: 0 0%
BRANCH_RETURN: 129 6.45e-05%
BRANCH_OTHER: 0 0%

