
*** ChampSim Multicore Out-of-Order Simulator ***

**************************
Prefetch will query the cache and affect the replacement policy!
**************************
Warmup Instructions: 50000000
Simulation Instructions: 200000000
Number of CPUs: 1
LLC sets: 2048
LLC ways: 16
Off-chip DRAM Size: 4096 MB Channels: 1 Width: 64-bit Data Rate: 3200 MT/s

CPU 0 runs ../traces/621.wrf_s-575B.champsimtrace.xz
CPU 0 Bimodal branch predictor
Heartbeat CPU 0 instructions: 10000000 cycles: 4328682 heartbeat IPC: 2.31017 cumulative IPC: 2.31017 (Simulation time: 0 hr 0 min 18 sec) 
Heartbeat CPU 0 instructions: 20000002 cycles: 8673344 heartbeat IPC: 2.30168 cumulative IPC: 2.30592 (Simulation time: 0 hr 0 min 36 sec) 
Heartbeat CPU 0 instructions: 30000000 cycles: 13029368 heartbeat IPC: 2.29567 cumulative IPC: 2.30249 (Simulation time: 0 hr 0 min 55 sec) 
Heartbeat CPU 0 instructions: 40000002 cycles: 17381212 heartbeat IPC: 2.29788 cumulative IPC: 2.30134 (Simulation time: 0 hr 1 min 13 sec) 
Heartbeat CPU 0 instructions: 50000002 cycles: 21730927 heartbeat IPC: 2.299 cumulative IPC: 2.30087 (Simulation time: 0 hr 1 min 31 sec) 

Warmup complete CPU 0 instructions: 50000002 cycles: 21730927 (Simulation time: 0 hr 1 min 31 sec) 

Heartbeat CPU 0 instructions: 60000003 cycles: 30977020 heartbeat IPC: 1.08154 cumulative IPC: 1.08154 (Simulation time: 0 hr 1 min 48 sec) 
Heartbeat CPU 0 instructions: 70000000 cycles: 40173282 heartbeat IPC: 1.0874 cumulative IPC: 1.08446 (Simulation time: 0 hr 2 min 4 sec) 
Heartbeat CPU 0 instructions: 80000002 cycles: 49316863 heartbeat IPC: 1.09366 cumulative IPC: 1.08751 (Simulation time: 0 hr 2 min 20 sec) 
Heartbeat CPU 0 instructions: 90000000 cycles: 58489698 heartbeat IPC: 1.09018 cumulative IPC: 1.08818 (Simulation time: 0 hr 2 min 39 sec) 
Heartbeat CPU 0 instructions: 100000001 cycles: 67638854 heartbeat IPC: 1.093 cumulative IPC: 1.08914 (Simulation time: 0 hr 2 min 56 sec) 
Heartbeat CPU 0 instructions: 110000000 cycles: 76753158 heartbeat IPC: 1.09718 cumulative IPC: 1.09047 (Simulation time: 0 hr 3 min 16 sec) 
Heartbeat CPU 0 instructions: 120000001 cycles: 85793541 heartbeat IPC: 1.10615 cumulative IPC: 1.09268 (Simulation time: 0 hr 3 min 35 sec) 
Heartbeat CPU 0 instructions: 130000000 cycles: 94880113 heartbeat IPC: 1.10052 cumulative IPC: 1.09366 (Simulation time: 0 hr 3 min 51 sec) 
Heartbeat CPU 0 instructions: 140000001 cycles: 103936932 heartbeat IPC: 1.10414 cumulative IPC: 1.09481 (Simulation time: 0 hr 4 min 7 sec) 
Heartbeat CPU 0 instructions: 150000000 cycles: 112870614 heartbeat IPC: 1.11936 cumulative IPC: 1.09722 (Simulation time: 0 hr 4 min 23 sec) 
Heartbeat CPU 0 instructions: 160000002 cycles: 121833140 heartbeat IPC: 1.11576 cumulative IPC: 1.09888 (Simulation time: 0 hr 4 min 39 sec) 
Heartbeat CPU 0 instructions: 170000001 cycles: 130766407 heartbeat IPC: 1.11941 cumulative IPC: 1.10056 (Simulation time: 0 hr 4 min 56 sec) 
Heartbeat CPU 0 instructions: 180000000 cycles: 139722088 heartbeat IPC: 1.11661 cumulative IPC: 1.10178 (Simulation time: 0 hr 5 min 12 sec) 
Heartbeat CPU 0 instructions: 190000003 cycles: 148720791 heartbeat IPC: 1.11127 cumulative IPC: 1.10245 (Simulation time: 0 hr 5 min 28 sec) 
Heartbeat CPU 0 instructions: 200000000 cycles: 157694017 heartbeat IPC: 1.11443 cumulative IPC: 1.10324 (Simulation time: 0 hr 5 min 45 sec) 
Heartbeat CPU 0 instructions: 210000001 cycles: 166568891 heartbeat IPC: 1.12678 cumulative IPC: 1.10468 (Simulation time: 0 hr 6 min 1 sec) 
Heartbeat CPU 0 instructions: 220000000 cycles: 175401287 heartbeat IPC: 1.1322 cumulative IPC: 1.10626 (Simulation time: 0 hr 6 min 18 sec) 
Heartbeat CPU 0 instructions: 230000001 cycles: 184285979 heartbeat IPC: 1.12553 cumulative IPC: 1.10732 (Simulation time: 0 hr 6 min 34 sec) 
Heartbeat CPU 0 instructions: 240000001 cycles: 193230377 heartbeat IPC: 1.11802 cumulative IPC: 1.10788 (Simulation time: 0 hr 6 min 50 sec) 
Heartbeat CPU 0 instructions: 250000001 cycles: 202198415 heartbeat IPC: 1.11507 cumulative IPC: 1.10823 (Simulation time: 0 hr 7 min 6 sec) 
Finished CPU 0 instructions: 200000000 cycles: 180467489 cumulative IPC: 1.10823 (Simulation time: 0 hr 7 min 6 sec) 

ChampSim completed all CPUs

Region of Interest Statistics

CPU 0 cumulative IPC: 1.10823 instructions: 200000000 cycles: 180467489
L1D TOTAL     ACCESS:   34027804  HIT:   34021932  MISS:       5872
L1D LOAD      ACCESS:   26558813  HIT:   26557516  MISS:       1297
L1D RFO       ACCESS:    7460361  HIT:    7457245  MISS:       3116
L1D PREFETCH  ACCESS:       8630  HIT:       7171  MISS:       1459
L1D WRITEBACK ACCESS:          0  HIT:          0  MISS:          0
L1D PREFETCH  REQUESTED:      23417  ISSUED:      23417  USEFUL:       1469  USELESS:        248  LATE:          0
L1D AVERAGE MISS LATENCY: 122.098 cycles
L1D AVERAGE LOAD MISS LATENCY: 47.7263 cycles
L1D AVERAGE RFO MISS LATENCY: 174.437 cycles
L1D AVERAGE PREFETCH MISS LATENCY: 76.4291 cycles
L1D AVERAGE WRITEBACK MISS LATENCY: -nan cycles
L1I TOTAL     ACCESS:   35115391  HIT:   35113919  MISS:       1472
L1I LOAD      ACCESS:   35115391  HIT:   35113919  MISS:       1472
L1I RFO       ACCESS:          0  HIT:          0  MISS:          0
L1I PREFETCH  ACCESS:          0  HIT:          0  MISS:          0
L1I WRITEBACK ACCESS:          0  HIT:          0  MISS:          0
L1I PREFETCH  REQUESTED:          0  ISSUED:          0  USEFUL:          0  USELESS:          0  LATE:          0
L1I AVERAGE MISS LATENCY: 14.1753 cycles
L1I AVERAGE LOAD MISS LATENCY: 14.1753 cycles
L1I AVERAGE RFO MISS LATENCY: -nan cycles
L1I AVERAGE PREFETCH MISS LATENCY: -nan cycles
L1I AVERAGE WRITEBACK MISS LATENCY: -nan cycles
L2C TOTAL     ACCESS:      23302  HIT:      15965  MISS:       7337
L2C LOAD      ACCESS:       2346  HIT:       1995  MISS:        351
L2C RFO       ACCESS:       3116  HIT:        684  MISS:       2432
L2C PREFETCH  ACCESS:      13776  HIT:       9231  MISS:       4545
L2C WRITEBACK ACCESS:       4064  HIT:       4055  MISS:          9
L2C PREFETCH  REQUESTED:          0  ISSUED:          0  USEFUL:       1213  USELESS:        647  LATE:          0
L2C AVERAGE MISS LATENCY: 195.649 cycles
L2C AVERAGE LOAD MISS LATENCY: 137.208 cycles
L2C AVERAGE RFO MISS LATENCY: 203.842 cycles
L2C AVERAGE PREFETCH MISS LATENCY: 196.166 cycles
L2C AVERAGE WRITEBACK MISS LATENCY: 0 cycles
LLC TOTAL     ACCESS:       8122  HIT:        818  MISS:       7304
LLC LOAD      ACCESS:        225  HIT:          6  MISS:        219
LLC RFO       ACCESS:       2432  HIT:          0  MISS:       2432
LLC PREFETCH  ACCESS:       4671  HIT:         18  MISS:       4653
LLC WRITEBACK ACCESS:        794  HIT:        794  MISS:          0
LLC PREFETCH  REQUESTED:          0  ISSUED:          0  USEFUL:          0  USELESS:          0  LATE:          0
LLC AVERAGE MISS LATENCY: 163.47 cycles
LLC AVERAGE LOAD MISS LATENCY: 117.543 cycles
LLC AVERAGE RFO MISS LATENCY: 173.499 cycles
LLC AVERAGE PREFETCH MISS LATENCY: 160.389 cycles
LLC AVERAGE WRITEBACK MISS LATENCY: -nan cycles
Major fault: 0 Minor fault: 364
L1D WB Stall Cycle: 29
PDR int 10
PDR bool 12

DRAM Statistics
 CHANNEL 0
 RQ ROW_BUFFER_HIT:       3136  ROW_BUFFER_MISS:       4168
 WQ ROW_BUFFER_HIT:          0  ROW_BUFFER_MISS:          0  FULL:          0

 DBUS_CONGESTED:       3801
 AVG_CONGESTED_CYCLE: 6

CPU 0 Branch Prediction Accuracy: 96.0154% MPKI: 5.34054 Average ROB Occupancy at Mispredict: 89.8421

Branch types
NOT_BRANCH: 173193896 86.5969%
BRANCH_DIRECT_JUMP: 1796498 0.898249%
BRANCH_INDIRECT: 0 0%
BRANCH_CONDITIONAL: 20615493 10.3077%
BRANCH_DIRECT_CALL: 2196902 1.09845%
BRANCH_INDIRECT_CALL: 0 0%
BRANCH_RETURN: 2196901 1.09845%
BRANCH_OTHER: 0 0%


-------------------- Pattern Stats --------------------
Size of recordings: 72798
PDR: 260.914
Total number of duplications: 72795
Total number of unique patterns: 279
PCR: 1.00011
Total number of collisions: 72795
Total number of unique features: 72787
