
*** ChampSim Multicore Out-of-Order Simulator ***

**************************
Prefetch will query the cache and affect the replacement policy!
**************************
Warmup Instructions: 50000000
Simulation Instructions: 200000000
Number of CPUs: 1
LLC sets: 2048
LLC ways: 16
Off-chip DRAM Size: 4096 MB Channels: 1 Width: 64-bit Data Rate: 3200 MT/s

CPU 0 runs ../traces/623.xalancbmk_s-10B.champsimtrace.xz
CPU 0 Bimodal branch predictor
Heartbeat CPU 0 instructions: 10000002 cycles: 4115079 heartbeat IPC: 2.43009 cumulative IPC: 2.43009 (Simulation time: 0 hr 0 min 23 sec) 
Heartbeat CPU 0 instructions: 20000000 cycles: 8261604 heartbeat IPC: 2.41166 cumulative IPC: 2.42084 (Simulation time: 0 hr 0 min 47 sec) 
Heartbeat CPU 0 instructions: 30000001 cycles: 12424234 heartbeat IPC: 2.40233 cumulative IPC: 2.41464 (Simulation time: 0 hr 1 min 10 sec) 
Heartbeat CPU 0 instructions: 40000003 cycles: 16589284 heartbeat IPC: 2.40093 cumulative IPC: 2.4112 (Simulation time: 0 hr 1 min 33 sec) 
Heartbeat CPU 0 instructions: 50000000 cycles: 20827132 heartbeat IPC: 2.35969 cumulative IPC: 2.40071 (Simulation time: 0 hr 1 min 58 sec) 

Warmup complete CPU 0 instructions: 50000004 cycles: 20827140 (Simulation time: 0 hr 1 min 58 sec) 

Heartbeat CPU 0 instructions: 60000002 cycles: 50268630 heartbeat IPC: 0.339657 cumulative IPC: 0.339657 (Simulation time: 0 hr 2 min 26 sec) 
Heartbeat CPU 0 instructions: 70000000 cycles: 78937443 heartbeat IPC: 0.348811 cumulative IPC: 0.344173 (Simulation time: 0 hr 2 min 55 sec) 
Heartbeat CPU 0 instructions: 80000002 cycles: 108746746 heartbeat IPC: 0.335466 cumulative IPC: 0.341221 (Simulation time: 0 hr 3 min 22 sec) 
Heartbeat CPU 0 instructions: 90000000 cycles: 135467810 heartbeat IPC: 0.374237 cumulative IPC: 0.348916 (Simulation time: 0 hr 3 min 45 sec) 
Heartbeat CPU 0 instructions: 100000003 cycles: 164557814 heartbeat IPC: 0.343761 cumulative IPC: 0.347873 (Simulation time: 0 hr 4 min 8 sec) 
Heartbeat CPU 0 instructions: 110000000 cycles: 189264036 heartbeat IPC: 0.404756 cumulative IPC: 0.356216 (Simulation time: 0 hr 4 min 30 sec) 
Heartbeat CPU 0 instructions: 120000001 cycles: 215539056 heartbeat IPC: 0.38059 cumulative IPC: 0.359505 (Simulation time: 0 hr 4 min 51 sec) 
Heartbeat CPU 0 instructions: 130000000 cycles: 247219411 heartbeat IPC: 0.315653 cumulative IPC: 0.353369 (Simulation time: 0 hr 5 min 14 sec) 
Heartbeat CPU 0 instructions: 140000000 cycles: 276710799 heartbeat IPC: 0.339082 cumulative IPC: 0.351722 (Simulation time: 0 hr 5 min 36 sec) 
Heartbeat CPU 0 instructions: 150000003 cycles: 300921730 heartbeat IPC: 0.413037 cumulative IPC: 0.357022 (Simulation time: 0 hr 5 min 56 sec) 
Heartbeat CPU 0 instructions: 160000001 cycles: 331421842 heartbeat IPC: 0.327868 cumulative IPC: 0.354159 (Simulation time: 0 hr 6 min 18 sec) 
Heartbeat CPU 0 instructions: 170000001 cycles: 359442608 heartbeat IPC: 0.356878 cumulative IPC: 0.354384 (Simulation time: 0 hr 6 min 40 sec) 
Heartbeat CPU 0 instructions: 180000001 cycles: 385746683 heartbeat IPC: 0.380169 cumulative IPC: 0.356243 (Simulation time: 0 hr 7 min 0 sec) 
Heartbeat CPU 0 instructions: 190000001 cycles: 412488773 heartbeat IPC: 0.373942 cumulative IPC: 0.357451 (Simulation time: 0 hr 7 min 22 sec) 
Heartbeat CPU 0 instructions: 200000000 cycles: 439545742 heartbeat IPC: 0.369591 cumulative IPC: 0.358236 (Simulation time: 0 hr 7 min 43 sec) 
Heartbeat CPU 0 instructions: 210000002 cycles: 468518380 heartbeat IPC: 0.345153 cumulative IPC: 0.357389 (Simulation time: 0 hr 8 min 6 sec) 
Heartbeat CPU 0 instructions: 220000000 cycles: 496673918 heartbeat IPC: 0.35517 cumulative IPC: 0.357258 (Simulation time: 0 hr 8 min 32 sec) 
Heartbeat CPU 0 instructions: 230000002 cycles: 522640862 heartbeat IPC: 0.385105 cumulative IPC: 0.358699 (Simulation time: 0 hr 8 min 57 sec) 
Heartbeat CPU 0 instructions: 240000000 cycles: 552248485 heartbeat IPC: 0.337751 cumulative IPC: 0.357532 (Simulation time: 0 hr 9 min 23 sec) 
Heartbeat CPU 0 instructions: 250000003 cycles: 581067656 heartbeat IPC: 0.346991 cumulative IPC: 0.35699 (Simulation time: 0 hr 9 min 45 sec) 
Finished CPU 0 instructions: 200000002 cycles: 560240517 cumulative IPC: 0.35699 (Simulation time: 0 hr 9 min 45 sec) 

ChampSim completed all CPUs

Region of Interest Statistics

CPU 0 cumulative IPC: 0.35699 instructions: 200000002 cycles: 560240517
L1D TOTAL     ACCESS:   47927945  HIT:   41982139  MISS:    5945806
L1D LOAD      ACCESS:   36373983  HIT:   31340212  MISS:    5033771
L1D RFO       ACCESS:    9492939  HIT:    9413913  MISS:      79026
L1D PREFETCH  ACCESS:    2061023  HIT:    1228014  MISS:     833009
L1D WRITEBACK ACCESS:          0  HIT:          0  MISS:          0
L1D PREFETCH  REQUESTED:   18097046  ISSUED:   18097046  USEFUL:     298155  USELESS:     763481  LATE:          0
L1D AVERAGE MISS LATENCY: 111.183 cycles
L1D AVERAGE LOAD MISS LATENCY: 105.982 cycles
L1D AVERAGE RFO MISS LATENCY: 85.7891 cycles
L1D AVERAGE PREFETCH MISS LATENCY: 145.02 cycles
L1D AVERAGE WRITEBACK MISS LATENCY: -nan cycles
L1I TOTAL     ACCESS:   35919052  HIT:   35205491  MISS:     713561
L1I LOAD      ACCESS:   35919052  HIT:   35205491  MISS:     713561
L1I RFO       ACCESS:          0  HIT:          0  MISS:          0
L1I PREFETCH  ACCESS:          0  HIT:          0  MISS:          0
L1I WRITEBACK ACCESS:          0  HIT:          0  MISS:          0
L1I PREFETCH  REQUESTED:          0  ISSUED:          0  USEFUL:          0  USELESS:          0  LATE:          0
L1I AVERAGE MISS LATENCY: 48.0692 cycles
L1I AVERAGE LOAD MISS LATENCY: 48.0692 cycles
L1I AVERAGE RFO MISS LATENCY: -nan cycles
L1I AVERAGE PREFETCH MISS LATENCY: -nan cycles
L1I AVERAGE WRITEBACK MISS LATENCY: -nan cycles
L2C TOTAL     ACCESS:   18152327  HIT:    4959145  MISS:   13193182
L2C LOAD      ACCESS:    5503595  HIT:    1977432  MISS:    3526163
L2C RFO       ACCESS:      78565  HIT:      37060  MISS:      41505
L2C PREFETCH  ACCESS:   12411885  HIT:    2794846  MISS:    9617039
L2C WRITEBACK ACCESS:     158282  HIT:     149807  MISS:       8475
L2C PREFETCH  REQUESTED:          0  ISSUED:          0  USEFUL:    1667977  USELESS:   10410410  LATE:          0
L2C AVERAGE MISS LATENCY: 140.092 cycles
L2C AVERAGE LOAD MISS LATENCY: 123.4 cycles
L2C AVERAGE RFO MISS LATENCY: 134.315 cycles
L2C AVERAGE PREFETCH MISS LATENCY: 146.36 cycles
L2C AVERAGE WRITEBACK MISS LATENCY: 0 cycles
LLC TOTAL     ACCESS:   13300522  HIT:    1997602  MISS:   11302920
LLC LOAD      ACCESS:    3352046  HIT:     375699  MISS:    2976347
LLC RFO       ACCESS:      41108  HIT:      11237  MISS:      29871
LLC PREFETCH  ACCESS:    9791551  HIT:    1496404  MISS:    8295147
LLC WRITEBACK ACCESS:     115817  HIT:     114262  MISS:       1555
LLC PREFETCH  REQUESTED:          0  ISSUED:          0  USEFUL:      72179  USELESS:   10323903  LATE:          0
LLC AVERAGE MISS LATENCY: 122.423 cycles
LLC AVERAGE LOAD MISS LATENCY: 107.463 cycles
LLC AVERAGE RFO MISS LATENCY: 141.47 cycles
LLC AVERAGE PREFETCH MISS LATENCY: 127.746 cycles
LLC AVERAGE WRITEBACK MISS LATENCY: 0 cycles
Major fault: 0 Minor fault: 11379
L1D WB Stall Cycle: 37506
PDR int 2
PDR bool 2

DRAM Statistics
 CHANNEL 0
 RQ ROW_BUFFER_HIT:    9103088  ROW_BUFFER_MISS:    2198269
 WQ ROW_BUFFER_HIT:       5396  ROW_BUFFER_MISS:      68775  FULL:          0

 DBUS_CONGESTED:    7116507
 AVG_CONGESTED_CYCLE: 6

CPU 0 Branch Prediction Accuracy: 95.0179% MPKI: 12.8889 Average ROB Occupancy at Mispredict: 35.3336

Branch types
NOT_BRANCH: 148259537 74.1298%
BRANCH_DIRECT_JUMP: 525801 0.2629%
BRANCH_INDIRECT: 94835 0.0474175%
BRANCH_CONDITIONAL: 46390901 23.1955%
BRANCH_DIRECT_CALL: 1305270 0.652635%
BRANCH_INDIRECT_CALL: 1059039 0.529519%
BRANCH_RETURN: 2364304 1.18215%
BRANCH_OTHER: 0 0%


-------------------- Pattern Stats --------------------
Size of recordings: 477417
PDR: 577.571
Total number of duplications: 476496
Total number of unique patterns: 825
PCR: 1.00229
Total number of collisions: 476496
Total number of unique features: 475409
