
*** ChampSim Multicore Out-of-Order Simulator ***

**************************
Prefetch will query the cache and affect the replacement policy!
**************************
Warmup Instructions: 50000000
Simulation Instructions: 200000000
Number of CPUs: 1
LLC sets: 2048
LLC ways: 16
Off-chip DRAM Size: 4096 MB Channels: 1 Width: 64-bit Data Rate: 3200 MT/s

CPU 0 runs ../traces/605.mcf_s-472B.champsimtrace.xz
CPU 0 Bimodal branch predictor
Heartbeat CPU 0 instructions: 10000001 cycles: 4195724 heartbeat IPC: 2.38338 cumulative IPC: 2.38338 (Simulation time: 0 hr 0 min 27 sec) 
Heartbeat CPU 0 instructions: 20000000 cycles: 8511228 heartbeat IPC: 2.31723 cumulative IPC: 2.34984 (Simulation time: 0 hr 0 min 56 sec) 
Heartbeat CPU 0 instructions: 30000001 cycles: 12891944 heartbeat IPC: 2.28273 cumulative IPC: 2.32703 (Simulation time: 0 hr 1 min 25 sec) 
Heartbeat CPU 0 instructions: 40000001 cycles: 17114496 heartbeat IPC: 2.36824 cumulative IPC: 2.3372 (Simulation time: 0 hr 1 min 53 sec) 
Heartbeat CPU 0 instructions: 50000001 cycles: 21354689 heartbeat IPC: 2.35838 cumulative IPC: 2.34141 (Simulation time: 0 hr 2 min 22 sec) 

Warmup complete CPU 0 instructions: 50000001 cycles: 21354689 (Simulation time: 0 hr 2 min 22 sec) 

Heartbeat CPU 0 instructions: 60000001 cycles: 38646916 heartbeat IPC: 0.578295 cumulative IPC: 0.578295 (Simulation time: 0 hr 2 min 55 sec) 
Heartbeat CPU 0 instructions: 70000002 cycles: 54937016 heartbeat IPC: 0.61387 cumulative IPC: 0.595551 (Simulation time: 0 hr 3 min 27 sec) 
Heartbeat CPU 0 instructions: 80000003 cycles: 75727180 heartbeat IPC: 0.480997 cumulative IPC: 0.55175 (Simulation time: 0 hr 4 min 4 sec) 
Heartbeat CPU 0 instructions: 90000000 cycles: 91644759 heartbeat IPC: 0.628236 cumulative IPC: 0.56907 (Simulation time: 0 hr 4 min 36 sec) 
Heartbeat CPU 0 instructions: 100000002 cycles: 111063970 heartbeat IPC: 0.514954 cumulative IPC: 0.557356 (Simulation time: 0 hr 5 min 11 sec) 
Heartbeat CPU 0 instructions: 110000000 cycles: 127071078 heartbeat IPC: 0.624722 cumulative IPC: 0.567556 (Simulation time: 0 hr 5 min 43 sec) 
Heartbeat CPU 0 instructions: 120000002 cycles: 145645961 heartbeat IPC: 0.538361 cumulative IPC: 0.563193 (Simulation time: 0 hr 6 min 17 sec) 
Heartbeat CPU 0 instructions: 130000003 cycles: 164520235 heartbeat IPC: 0.529822 cumulative IPC: 0.558794 (Simulation time: 0 hr 6 min 52 sec) 
Heartbeat CPU 0 instructions: 140000003 cycles: 183944738 heartbeat IPC: 0.514814 cumulative IPC: 0.553539 (Simulation time: 0 hr 7 min 30 sec) 
Heartbeat CPU 0 instructions: 150000001 cycles: 203126994 heartbeat IPC: 0.521315 cumulative IPC: 0.550139 (Simulation time: 0 hr 8 min 6 sec) 
Heartbeat CPU 0 instructions: 160000002 cycles: 221510662 heartbeat IPC: 0.543961 cumulative IPC: 0.549571 (Simulation time: 0 hr 8 min 40 sec) 
Heartbeat CPU 0 instructions: 170000001 cycles: 238547288 heartbeat IPC: 0.586971 cumulative IPC: 0.552505 (Simulation time: 0 hr 9 min 13 sec) 
Heartbeat CPU 0 instructions: 180000000 cycles: 253870861 heartbeat IPC: 0.652589 cumulative IPC: 0.559101 (Simulation time: 0 hr 9 min 45 sec) 
Heartbeat CPU 0 instructions: 190000000 cycles: 275585811 heartbeat IPC: 0.460512 cumulative IPC: 0.55068 (Simulation time: 0 hr 10 min 22 sec) 
Heartbeat CPU 0 instructions: 200000001 cycles: 292949991 heartbeat IPC: 0.575898 cumulative IPC: 0.552292 (Simulation time: 0 hr 10 min 54 sec) 
Heartbeat CPU 0 instructions: 210000001 cycles: 310265632 heartbeat IPC: 0.577513 cumulative IPC: 0.553804 (Simulation time: 0 hr 11 min 25 sec) 
Heartbeat CPU 0 instructions: 220000000 cycles: 328969191 heartbeat IPC: 0.534658 cumulative IPC: 0.55264 (Simulation time: 0 hr 11 min 57 sec) 
Heartbeat CPU 0 instructions: 230000001 cycles: 347277023 heartbeat IPC: 0.546214 cumulative IPC: 0.552279 (Simulation time: 0 hr 12 min 29 sec) 
Heartbeat CPU 0 instructions: 240000002 cycles: 365748937 heartbeat IPC: 0.541362 cumulative IPC: 0.551693 (Simulation time: 0 hr 13 min 0 sec) 
Heartbeat CPU 0 instructions: 250000001 cycles: 378558184 heartbeat IPC: 0.780686 cumulative IPC: 0.559905 (Simulation time: 0 hr 13 min 26 sec) 
Finished CPU 0 instructions: 200000000 cycles: 357203495 cumulative IPC: 0.559905 (Simulation time: 0 hr 13 min 26 sec) 

ChampSim completed all CPUs

Region of Interest Statistics

CPU 0 cumulative IPC: 0.559905 instructions: 200000000 cycles: 357203495
L1D TOTAL     ACCESS:   94582124  HIT:   82170057  MISS:   12412067
L1D LOAD      ACCESS:   43525503  HIT:   37512832  MISS:    6012671
L1D RFO       ACCESS:   44322488  HIT:   43884670  MISS:     437818
L1D PREFETCH  ACCESS:    6734133  HIT:     772555  MISS:    5961578
L1D WRITEBACK ACCESS:          0  HIT:          0  MISS:          0
L1D PREFETCH  REQUESTED:   20486301  ISSUED:   20486301  USEFUL:    5745743  USELESS:    2442702  LATE:          0
L1D AVERAGE MISS LATENCY: 152.832 cycles
L1D AVERAGE LOAD MISS LATENCY: 78.8521 cycles
L1D AVERAGE RFO MISS LATENCY: 233.841 cycles
L1D AVERAGE PREFETCH MISS LATENCY: 221.496 cycles
L1D AVERAGE WRITEBACK MISS LATENCY: -nan cycles
L1I TOTAL     ACCESS:   40496615  HIT:   40496609  MISS:          6
L1I LOAD      ACCESS:   40496615  HIT:   40496609  MISS:          6
L1I RFO       ACCESS:          0  HIT:          0  MISS:          0
L1I PREFETCH  ACCESS:          0  HIT:          0  MISS:          0
L1I WRITEBACK ACCESS:          0  HIT:          0  MISS:          0
L1I PREFETCH  REQUESTED:          0  ISSUED:          0  USEFUL:          0  USELESS:          0  LATE:          0
L1I AVERAGE MISS LATENCY: 222 cycles
L1I AVERAGE LOAD MISS LATENCY: 222 cycles
L1I AVERAGE RFO MISS LATENCY: -nan cycles
L1I AVERAGE PREFETCH MISS LATENCY: -nan cycles
L1I AVERAGE WRITEBACK MISS LATENCY: -nan cycles
L2C TOTAL     ACCESS:   19838461  HIT:    4035583  MISS:   15802878
L2C LOAD      ACCESS:    3817095  HIT:    1759458  MISS:    2057637
L2C RFO       ACCESS:     437731  HIT:      40648  MISS:     397083
L2C PREFETCH  ACCESS:   14598772  HIT:    1257857  MISS:   13340915
L2C WRITEBACK ACCESS:     984863  HIT:     977620  MISS:       7243
L2C PREFETCH  REQUESTED:          0  ISSUED:          0  USEFUL:    2268824  USELESS:   14979405  LATE:          0
L2C AVERAGE MISS LATENCY: 206.513 cycles
L2C AVERAGE LOAD MISS LATENCY: 199.834 cycles
L2C AVERAGE RFO MISS LATENCY: 239.279 cycles
L2C AVERAGE PREFETCH MISS LATENCY: 206.681 cycles
L2C AVERAGE WRITEBACK MISS LATENCY: 0 cycles
LLC TOTAL     ACCESS:   16650142  HIT:     914370  MISS:   15735772
LLC LOAD      ACCESS:    1882515  HIT:       6910  MISS:    1875605
LLC RFO       ACCESS:     396106  HIT:        519  MISS:     395587
LLC PREFETCH  ACCESS:   13517013  HIT:      60201  MISS:   13456812
LLC WRITEBACK ACCESS:     854508  HIT:     846740  MISS:       7768
LLC PREFETCH  REQUESTED:          0  ISSUED:          0  USEFUL:       6690  USELESS:   17320148  LATE:          0
LLC AVERAGE MISS LATENCY: 172.695 cycles
LLC AVERAGE LOAD MISS LATENCY: 170.47 cycles
LLC AVERAGE RFO MISS LATENCY: 206.746 cycles
LLC AVERAGE PREFETCH MISS LATENCY: 172.104 cycles
LLC AVERAGE WRITEBACK MISS LATENCY: 0 cycles
Major fault: 0 Minor fault: 63676
L1D WB Stall Cycle: 212537
PDR int 4.89549
PDR bool 6.36817
PCR 2.0079

DRAM Statistics
 CHANNEL 0
 RQ ROW_BUFFER_HIT:   12780180  ROW_BUFFER_MISS:    2947525
 WQ ROW_BUFFER_HIT:     218404  ROW_BUFFER_MISS:     629380  FULL:          0

 DBUS_CONGESTED:   12733850
 AVG_CONGESTED_CYCLE: 6

CPU 0 Branch Prediction Accuracy: 98.5833% MPKI: 1.82583 Average ROB Occupancy at Mispredict: 190.088

Branch types
NOT_BRANCH: 174224598 87.1123%
BRANCH_DIRECT_JUMP: 2120382 1.06019%
BRANCH_INDIRECT: 0 0%
BRANCH_CONDITIONAL: 23654528 11.8273%
BRANCH_DIRECT_CALL: 241 0.0001205%
BRANCH_INDIRECT_CALL: 0 0%
BRANCH_RETURN: 240 0.00012%
BRANCH_OTHER: 0 0%


-------------------- Pattern Stats --------------------
Size of recordings: 3264821
PDR: 74200.5
Total number of duplications: 3264821
Total number of unique patterns: 44
PCR: 1
Total number of collisions: 3264821
Total number of unique features: 3264821
