
*** ChampSim Multicore Out-of-Order Simulator ***

**************************
Prefetch will query the cache and affect the replacement policy!
**************************
Warmup Instructions: 50000000
Simulation Instructions: 200000000
Number of CPUs: 1
LLC sets: 2048
LLC ways: 16
Off-chip DRAM Size: 4096 MB Channels: 1 Width: 64-bit Data Rate: 3200 MT/s

CPU 0 runs ../traces/619.lbm_s-2676B.champsimtrace.xz
CPU 0 Bimodal branch predictor
Heartbeat CPU 0 instructions: 10000003 cycles: 3483797 heartbeat IPC: 2.87043 cumulative IPC: 2.87043 (Simulation time: 0 hr 0 min 23 sec) 
Heartbeat CPU 0 instructions: 20000003 cycles: 6958270 heartbeat IPC: 2.87813 cumulative IPC: 2.87428 (Simulation time: 0 hr 0 min 45 sec) 
Heartbeat CPU 0 instructions: 30000000 cycles: 10421156 heartbeat IPC: 2.88776 cumulative IPC: 2.87876 (Simulation time: 0 hr 1 min 8 sec) 
Heartbeat CPU 0 instructions: 40000001 cycles: 13859880 heartbeat IPC: 2.90806 cumulative IPC: 2.88603 (Simulation time: 0 hr 1 min 31 sec) 
Heartbeat CPU 0 instructions: 50000001 cycles: 17277542 heartbeat IPC: 2.92598 cumulative IPC: 2.89393 (Simulation time: 0 hr 1 min 53 sec) 

Warmup complete CPU 0 instructions: 50000001 cycles: 17277542 (Simulation time: 0 hr 1 min 53 sec) 

Heartbeat CPU 0 instructions: 60000002 cycles: 34213397 heartbeat IPC: 0.590463 cumulative IPC: 0.590463 (Simulation time: 0 hr 2 min 28 sec) 
Heartbeat CPU 0 instructions: 70000001 cycles: 50409522 heartbeat IPC: 0.617432 cumulative IPC: 0.603646 (Simulation time: 0 hr 3 min 2 sec) 
Heartbeat CPU 0 instructions: 80000000 cycles: 65198431 heartbeat IPC: 0.676182 cumulative IPC: 0.626032 (Simulation time: 0 hr 3 min 34 sec) 
Heartbeat CPU 0 instructions: 90000003 cycles: 79926876 heartbeat IPC: 0.678958 cumulative IPC: 0.638475 (Simulation time: 0 hr 4 min 6 sec) 
Heartbeat CPU 0 instructions: 100000001 cycles: 93694381 heartbeat IPC: 0.726348 cumulative IPC: 0.654306 (Simulation time: 0 hr 4 min 37 sec) 
Heartbeat CPU 0 instructions: 110000000 cycles: 107244357 heartbeat IPC: 0.738009 cumulative IPC: 0.666913 (Simulation time: 0 hr 5 min 7 sec) 
Heartbeat CPU 0 instructions: 120000003 cycles: 120061614 heartbeat IPC: 0.780198 cumulative IPC: 0.681039 (Simulation time: 0 hr 5 min 36 sec) 
Heartbeat CPU 0 instructions: 130000003 cycles: 132510242 heartbeat IPC: 0.803301 cumulative IPC: 0.694247 (Simulation time: 0 hr 6 min 6 sec) 
Heartbeat CPU 0 instructions: 140000003 cycles: 144556580 heartbeat IPC: 0.830128 cumulative IPC: 0.707108 (Simulation time: 0 hr 6 min 35 sec) 
Heartbeat CPU 0 instructions: 150000001 cycles: 156364636 heartbeat IPC: 0.846879 cumulative IPC: 0.718974 (Simulation time: 0 hr 7 min 2 sec) 
Heartbeat CPU 0 instructions: 160000001 cycles: 167566328 heartbeat IPC: 0.892722 cumulative IPC: 0.731924 (Simulation time: 0 hr 7 min 29 sec) 
Heartbeat CPU 0 instructions: 170000003 cycles: 178746585 heartbeat IPC: 0.894434 cumulative IPC: 0.743177 (Simulation time: 0 hr 7 min 55 sec) 
Heartbeat CPU 0 instructions: 180000003 cycles: 189959387 heartbeat IPC: 0.891838 cumulative IPC: 0.75283 (Simulation time: 0 hr 8 min 22 sec) 
Heartbeat CPU 0 instructions: 190000002 cycles: 200600203 heartbeat IPC: 0.939777 cumulative IPC: 0.763681 (Simulation time: 0 hr 8 min 48 sec) 
Heartbeat CPU 0 instructions: 200000003 cycles: 211238790 heartbeat IPC: 0.939975 cumulative IPC: 0.77335 (Simulation time: 0 hr 9 min 13 sec) 
Heartbeat CPU 0 instructions: 210000000 cycles: 221756466 heartbeat IPC: 0.95078 cumulative IPC: 0.782477 (Simulation time: 0 hr 9 min 38 sec) 
Heartbeat CPU 0 instructions: 220000000 cycles: 232060844 heartbeat IPC: 0.970461 cumulative IPC: 0.791495 (Simulation time: 0 hr 10 min 3 sec) 
Heartbeat CPU 0 instructions: 230000002 cycles: 242283938 heartbeat IPC: 0.978178 cumulative IPC: 0.799977 (Simulation time: 0 hr 10 min 28 sec) 
Heartbeat CPU 0 instructions: 240000001 cycles: 252653593 heartbeat IPC: 0.964352 cumulative IPC: 0.807219 (Simulation time: 0 hr 10 min 53 sec) 
Heartbeat CPU 0 instructions: 250000003 cycles: 262910720 heartbeat IPC: 0.974932 cumulative IPC: 0.814222 (Simulation time: 0 hr 11 min 17 sec) 
Finished CPU 0 instructions: 200000002 cycles: 245633178 cumulative IPC: 0.814222 (Simulation time: 0 hr 11 min 17 sec) 

ChampSim completed all CPUs

Region of Interest Statistics

CPU 0 cumulative IPC: 0.814222 instructions: 200000002 cycles: 245633178
L1D TOTAL     ACCESS:   35793392  HIT:   26998890  MISS:    8794502
L1D LOAD      ACCESS:   11560091  HIT:   11048240  MISS:     511851
L1D RFO       ACCESS:   23412227  HIT:   15950254  MISS:    7461973
L1D PREFETCH  ACCESS:     821074  HIT:        396  MISS:     820678
L1D WRITEBACK ACCESS:          0  HIT:          0  MISS:          0
L1D PREFETCH  REQUESTED:    1618463  ISSUED:    1618463  USEFUL:    1332422  USELESS:          0  LATE:          0
L1D AVERAGE MISS LATENCY: 389.792 cycles
L1D AVERAGE LOAD MISS LATENCY: 307.238 cycles
L1D AVERAGE RFO MISS LATENCY: 384.086 cycles
L1D AVERAGE PREFETCH MISS LATENCY: 493.169 cycles
L1D AVERAGE WRITEBACK MISS LATENCY: -nan cycles
L1I TOTAL     ACCESS:   30516862  HIT:   30516862  MISS:          0
L1I LOAD      ACCESS:   30516862  HIT:   30516862  MISS:          0
L1I RFO       ACCESS:          0  HIT:          0  MISS:          0
L1I PREFETCH  ACCESS:          0  HIT:          0  MISS:          0
L1I WRITEBACK ACCESS:          0  HIT:          0  MISS:          0
L1I PREFETCH  REQUESTED:          0  ISSUED:          0  USEFUL:          0  USELESS:          0  LATE:          0
L1I AVERAGE MISS LATENCY: -nan cycles
L1I AVERAGE LOAD MISS LATENCY: -nan cycles
L1I AVERAGE RFO MISS LATENCY: -nan cycles
L1I AVERAGE PREFETCH MISS LATENCY: -nan cycles
L1I AVERAGE WRITEBACK MISS LATENCY: -nan cycles
L2C TOTAL     ACCESS:   16256578  HIT:   10867241  MISS:    5389337
L2C LOAD      ACCESS:     258752  HIT:          1  MISS:     258751
L2C RFO       ACCESS:    7461973  HIT:    3405346  MISS:    4056627
L2C PREFETCH  ACCESS:    1073880  HIT:          4  MISS:    1073876
L2C WRITEBACK ACCESS:    7461973  HIT:    7461890  MISS:         83
L2C PREFETCH  REQUESTED:          0  ISSUED:          0  USEFUL:          2  USELESS:    1589227  LATE:          0
L2C AVERAGE MISS LATENCY: 638.817 cycles
L2C AVERAGE LOAD MISS LATENCY: 591.769 cycles
L2C AVERAGE RFO MISS LATENCY: 676.712 cycles
L2C AVERAGE PREFETCH MISS LATENCY: 507.053 cycles
L2C AVERAGE WRITEBACK MISS LATENCY: 0 cycles
LLC TOTAL     ACCESS:    9445977  HIT:    4115831  MISS:    5330146
LLC LOAD      ACCESS:     258751  HIT:          0  MISS:     258751
LLC RFO       ACCESS:    4056603  HIT:      59167  MISS:    3997436
LLC PREFETCH  ACCESS:    1073876  HIT:          0  MISS:    1073876
LLC WRITEBACK ACCESS:    4056747  HIT:    4056664  MISS:         83
LLC PREFETCH  REQUESTED:          0  ISSUED:          0  USEFUL:          1  USELESS:    1584182  LATE:          0
LLC AVERAGE MISS LATENCY: 613.684 cycles
LLC AVERAGE LOAD MISS LATENCY: 560.854 cycles
LLC AVERAGE RFO MISS LATENCY: 654.28 cycles
LLC AVERAGE PREFETCH MISS LATENCY: 475.344 cycles
LLC AVERAGE WRITEBACK MISS LATENCY: 0 cycles
Major fault: 0 Minor fault: 61271
L1D WB Stall Cycle: 204279821

DRAM Statistics
 CHANNEL 0
 RQ ROW_BUFFER_HIT:     433342  ROW_BUFFER_MISS:    4896721
 WQ ROW_BUFFER_HIT:     765795  ROW_BUFFER_MISS:    3228709  FULL:          0

 DBUS_CONGESTED:    6170748
 AVG_CONGESTED_CYCLE: 6

CPU 0 Branch Prediction Accuracy: 98.2572% MPKI: 0.21118 Average ROB Occupancy at Mispredict: 209.626

Branch types
NOT_BRANCH: 197576592 98.7883%
BRANCH_DIRECT_JUMP: 120779 0.0603895%
BRANCH_INDIRECT: 0 0%
BRANCH_CONDITIONAL: 2302626 1.15131%
BRANCH_DIRECT_CALL: 0 0%
BRANCH_INDIRECT_CALL: 0 0%
BRANCH_RETURN: 0 0%
BRANCH_OTHER: 0 0%

