
*** ChampSim Multicore Out-of-Order Simulator ***

**************************
Prefetch will query the cache and affect the replacement policy!
**************************
Warmup Instructions: 50000000
Simulation Instructions: 200000000
Number of CPUs: 1
LLC sets: 2048
LLC ways: 16
Off-chip DRAM Size: 4096 MB Channels: 1 Width: 64-bit Data Rate: 3200 MT/s

CPU 0 runs ../traces/603.bwaves_s-891B.champsimtrace.xz
CPU 0 Bimodal branch predictor
Heartbeat CPU 0 instructions: 10000000 cycles: 2858164 heartbeat IPC: 3.49875 cumulative IPC: 3.49875 (Simulation time: 0 hr 0 min 17 sec) 
Heartbeat CPU 0 instructions: 20000003 cycles: 5716110 heartbeat IPC: 3.49902 cumulative IPC: 3.49888 (Simulation time: 0 hr 0 min 33 sec) 
Heartbeat CPU 0 instructions: 30000000 cycles: 8574190 heartbeat IPC: 3.49885 cumulative IPC: 3.49887 (Simulation time: 0 hr 0 min 49 sec) 
Heartbeat CPU 0 instructions: 40000001 cycles: 11432318 heartbeat IPC: 3.49879 cumulative IPC: 3.49885 (Simulation time: 0 hr 1 min 5 sec) 
Heartbeat CPU 0 instructions: 50000002 cycles: 14391193 heartbeat IPC: 3.37966 cumulative IPC: 3.47435 (Simulation time: 0 hr 1 min 14 sec) 

Warmup complete CPU 0 instructions: 50000002 cycles: 14391193 (Simulation time: 0 hr 1 min 14 sec) 

Heartbeat CPU 0 instructions: 60000003 cycles: 23220339 heartbeat IPC: 1.13261 cumulative IPC: 1.13261 (Simulation time: 0 hr 1 min 23 sec) 
Heartbeat CPU 0 instructions: 70000001 cycles: 32049394 heartbeat IPC: 1.13262 cumulative IPC: 1.13262 (Simulation time: 0 hr 1 min 31 sec) 
Heartbeat CPU 0 instructions: 80000000 cycles: 40878282 heartbeat IPC: 1.13265 cumulative IPC: 1.13263 (Simulation time: 0 hr 1 min 40 sec) 
Heartbeat CPU 0 instructions: 90000001 cycles: 49707580 heartbeat IPC: 1.13259 cumulative IPC: 1.13262 (Simulation time: 0 hr 1 min 48 sec) 
Heartbeat CPU 0 instructions: 100000000 cycles: 58535931 heartbeat IPC: 1.13271 cumulative IPC: 1.13264 (Simulation time: 0 hr 1 min 57 sec) 
Heartbeat CPU 0 instructions: 110000000 cycles: 67364433 heartbeat IPC: 1.13269 cumulative IPC: 1.13265 (Simulation time: 0 hr 2 min 5 sec) 
Heartbeat CPU 0 instructions: 120000001 cycles: 76193729 heartbeat IPC: 1.13259 cumulative IPC: 1.13264 (Simulation time: 0 hr 2 min 14 sec) 
Heartbeat CPU 0 instructions: 130000000 cycles: 85024309 heartbeat IPC: 1.13243 cumulative IPC: 1.13261 (Simulation time: 0 hr 2 min 22 sec) 
Heartbeat CPU 0 instructions: 140000001 cycles: 93854801 heartbeat IPC: 1.13244 cumulative IPC: 1.13259 (Simulation time: 0 hr 2 min 31 sec) 
Heartbeat CPU 0 instructions: 150000003 cycles: 102682973 heartbeat IPC: 1.13274 cumulative IPC: 1.13261 (Simulation time: 0 hr 2 min 39 sec) 
Heartbeat CPU 0 instructions: 160000000 cycles: 111513220 heartbeat IPC: 1.13247 cumulative IPC: 1.1326 (Simulation time: 0 hr 2 min 48 sec) 
Heartbeat CPU 0 instructions: 170000000 cycles: 120360157 heartbeat IPC: 1.13033 cumulative IPC: 1.13241 (Simulation time: 0 hr 2 min 56 sec) 
Heartbeat CPU 0 instructions: 180000001 cycles: 129239398 heartbeat IPC: 1.12622 cumulative IPC: 1.13193 (Simulation time: 0 hr 3 min 5 sec) 
Heartbeat CPU 0 instructions: 190000001 cycles: 139449677 heartbeat IPC: 0.979405 cumulative IPC: 1.11948 (Simulation time: 0 hr 3 min 15 sec) 
Heartbeat CPU 0 instructions: 200000000 cycles: 151041009 heartbeat IPC: 0.862714 cumulative IPC: 1.0977 (Simulation time: 0 hr 3 min 27 sec) 
Heartbeat CPU 0 instructions: 210000002 cycles: 162632264 heartbeat IPC: 0.86272 cumulative IPC: 1.07932 (Simulation time: 0 hr 3 min 39 sec) 
Heartbeat CPU 0 instructions: 220000000 cycles: 174220591 heartbeat IPC: 0.862937 cumulative IPC: 1.06363 (Simulation time: 0 hr 3 min 51 sec) 
Heartbeat CPU 0 instructions: 230000002 cycles: 185809616 heartbeat IPC: 0.862886 cumulative IPC: 1.05006 (Simulation time: 0 hr 4 min 3 sec) 
Heartbeat CPU 0 instructions: 240000003 cycles: 197400019 heartbeat IPC: 0.862783 cumulative IPC: 1.0382 (Simulation time: 0 hr 4 min 15 sec) 
Heartbeat CPU 0 instructions: 250000003 cycles: 208990540 heartbeat IPC: 0.862774 cumulative IPC: 1.02775 (Simulation time: 0 hr 4 min 27 sec) 
Finished CPU 0 instructions: 200000001 cycles: 194599347 cumulative IPC: 1.02775 (Simulation time: 0 hr 4 min 27 sec) 

ChampSim completed all CPUs

Region of Interest Statistics

CPU 0 cumulative IPC: 1.02775 instructions: 200000001 cycles: 194599347
L1D TOTAL     ACCESS:   27891087  HIT:   24029514  MISS:    3861573
L1D LOAD      ACCESS:   20943489  HIT:   20652060  MISS:     291429
L1D RFO       ACCESS:    3375822  HIT:    3375820  MISS:          2
L1D PREFETCH  ACCESS:    3571776  HIT:       1634  MISS:    3570142
L1D WRITEBACK ACCESS:          0  HIT:          0  MISS:          0
L1D PREFETCH  REQUESTED:    4972854  ISSUED:    4972854  USEFUL:    4797309  USELESS:        630  LATE:          0
L1D AVERAGE MISS LATENCY: 182.716 cycles
L1D AVERAGE LOAD MISS LATENCY: 76.8427 cycles
L1D AVERAGE RFO MISS LATENCY: 219.5 cycles
L1D AVERAGE PREFETCH MISS LATENCY: 191.358 cycles
L1D AVERAGE WRITEBACK MISS LATENCY: -nan cycles
L1I TOTAL     ACCESS:   31517775  HIT:   31517768  MISS:          7
L1I LOAD      ACCESS:   31517775  HIT:   31517768  MISS:          7
L1I RFO       ACCESS:          0  HIT:          0  MISS:          0
L1I PREFETCH  ACCESS:          0  HIT:          0  MISS:          0
L1I WRITEBACK ACCESS:          0  HIT:          0  MISS:          0
L1I PREFETCH  REQUESTED:          0  ISSUED:          0  USEFUL:          0  USELESS:          0  LATE:          0
L1I AVERAGE MISS LATENCY: 217 cycles
L1I AVERAGE LOAD MISS LATENCY: 217 cycles
L1I AVERAGE RFO MISS LATENCY: -nan cycles
L1I AVERAGE PREFETCH MISS LATENCY: -nan cycles
L1I AVERAGE WRITEBACK MISS LATENCY: -nan cycles
L2C TOTAL     ACCESS:    3861584  HIT:        557  MISS:    3861027
L2C LOAD      ACCESS:     133644  HIT:         79  MISS:     133565
L2C RFO       ACCESS:          2  HIT:          0  MISS:          2
L2C PREFETCH  ACCESS:    3727934  HIT:        477  MISS:    3727457
L2C WRITEBACK ACCESS:          4  HIT:          1  MISS:          3
L2C PREFETCH  REQUESTED:          0  ISSUED:          0  USEFUL:          0  USELESS:    4949202  LATE:          0
L2C AVERAGE MISS LATENCY: 174.402 cycles
L2C AVERAGE LOAD MISS LATENCY: 152.664 cycles
L2C AVERAGE RFO MISS LATENCY: 204.5 cycles
L2C AVERAGE PREFETCH MISS LATENCY: 175.181 cycles
L2C AVERAGE WRITEBACK MISS LATENCY: 0 cycles
LLC TOTAL     ACCESS:    3861028  HIT:        790  MISS:    3860238
LLC LOAD      ACCESS:     133565  HIT:        789  MISS:     132776
LLC RFO       ACCESS:          2  HIT:          0  MISS:          2
LLC PREFETCH  ACCESS:    3727457  HIT:          0  MISS:    3727457
LLC WRITEBACK ACCESS:          4  HIT:          1  MISS:          3
LLC PREFETCH  REQUESTED:          0  ISSUED:          0  USEFUL:          0  USELESS:    4925555  LATE:          0
LLC AVERAGE MISS LATENCY: 141.858 cycles
LLC AVERAGE LOAD MISS LATENCY: 123.388 cycles
LLC AVERAGE RFO MISS LATENCY: 174.5 cycles
LLC AVERAGE PREFETCH MISS LATENCY: 142.516 cycles
LLC AVERAGE WRITEBACK MISS LATENCY: 0 cycles
Major fault: 0 Minor fault: 62016
L1D WB Stall Cycle: 0

DRAM Statistics
 CHANNEL 0
 RQ ROW_BUFFER_HIT:    2799093  ROW_BUFFER_MISS:    1061142
 WQ ROW_BUFFER_HIT:          0  ROW_BUFFER_MISS:          2  FULL:          0

 DBUS_CONGESTED:    2906669
 AVG_CONGESTED_CYCLE: 6

CPU 0 Branch Prediction Accuracy: 85.6193% MPKI: 24.1032 Average ROB Occupancy at Mispredict: 18.6667

Branch types
NOT_BRANCH: 166478353 83.2392%
BRANCH_DIRECT_JUMP: 1387292 0.693646%
BRANCH_INDIRECT: 0 0%
BRANCH_CONDITIONAL: 32134348 16.0672%
BRANCH_DIRECT_CALL: 0 0%
BRANCH_INDIRECT_CALL: 0 0%
BRANCH_RETURN: 0 0%
BRANCH_OTHER: 0 0%

