
*** ChampSim Multicore Out-of-Order Simulator ***

**************************
Prefetch will query the cache and affect the replacement policy!
**************************
Warmup Instructions: 50000000
Simulation Instructions: 200000000
Number of CPUs: 1
LLC sets: 2048
LLC ways: 16
Off-chip DRAM Size: 4096 MB Channels: 1 Width: 64-bit Data Rate: 3200 MT/s

CPU 0 runs ../traces/619.lbm_s-2676B.champsimtrace.xz
CPU 0 Bimodal branch predictor
Heartbeat CPU 0 instructions: 10000003 cycles: 3484226 heartbeat IPC: 2.87008 cumulative IPC: 2.87008 (Simulation time: 0 hr 0 min 23 sec) 
Heartbeat CPU 0 instructions: 20000003 cycles: 6959144 heartbeat IPC: 2.87777 cumulative IPC: 2.87392 (Simulation time: 0 hr 0 min 45 sec) 
Heartbeat CPU 0 instructions: 30000000 cycles: 10422478 heartbeat IPC: 2.88739 cumulative IPC: 2.87839 (Simulation time: 0 hr 1 min 8 sec) 
Heartbeat CPU 0 instructions: 40000001 cycles: 13861715 heartbeat IPC: 2.90762 cumulative IPC: 2.88565 (Simulation time: 0 hr 1 min 31 sec) 
Heartbeat CPU 0 instructions: 50000001 cycles: 17279633 heartbeat IPC: 2.92576 cumulative IPC: 2.89358 (Simulation time: 0 hr 1 min 53 sec) 

Warmup complete CPU 0 instructions: 50000001 cycles: 17279633 (Simulation time: 0 hr 1 min 53 sec) 

Heartbeat CPU 0 instructions: 60000002 cycles: 34309908 heartbeat IPC: 0.58719 cumulative IPC: 0.58719 (Simulation time: 0 hr 2 min 28 sec) 
Heartbeat CPU 0 instructions: 70000002 cycles: 50574530 heartbeat IPC: 0.614831 cumulative IPC: 0.600693 (Simulation time: 0 hr 3 min 1 sec) 
Heartbeat CPU 0 instructions: 80000000 cycles: 65444239 heartbeat IPC: 0.672508 cumulative IPC: 0.622864 (Simulation time: 0 hr 3 min 34 sec) 
Heartbeat CPU 0 instructions: 90000003 cycles: 80258232 heartbeat IPC: 0.675038 cumulative IPC: 0.635136 (Simulation time: 0 hr 4 min 6 sec) 
Heartbeat CPU 0 instructions: 100000001 cycles: 94107822 heartbeat IPC: 0.722043 cumulative IPC: 0.650803 (Simulation time: 0 hr 4 min 37 sec) 
Heartbeat CPU 0 instructions: 110000000 cycles: 107746060 heartbeat IPC: 0.733232 cumulative IPC: 0.663229 (Simulation time: 0 hr 5 min 8 sec) 
Heartbeat CPU 0 instructions: 120000003 cycles: 120648541 heartbeat IPC: 0.775045 cumulative IPC: 0.677186 (Simulation time: 0 hr 5 min 37 sec) 
Heartbeat CPU 0 instructions: 130000001 cycles: 133180653 heartbeat IPC: 0.79795 cumulative IPC: 0.690244 (Simulation time: 0 hr 6 min 5 sec) 
Heartbeat CPU 0 instructions: 140000003 cycles: 145295442 heartbeat IPC: 0.825438 cumulative IPC: 0.703038 (Simulation time: 0 hr 6 min 33 sec) 
Heartbeat CPU 0 instructions: 150000001 cycles: 157187516 heartbeat IPC: 0.840896 cumulative IPC: 0.714756 (Simulation time: 0 hr 7 min 1 sec) 
Heartbeat CPU 0 instructions: 160000001 cycles: 168466602 heartbeat IPC: 0.886597 cumulative IPC: 0.727576 (Simulation time: 0 hr 7 min 28 sec) 
Heartbeat CPU 0 instructions: 170000003 cycles: 179751413 heartbeat IPC: 0.886147 cumulative IPC: 0.73859 (Simulation time: 0 hr 7 min 54 sec) 
Heartbeat CPU 0 instructions: 180000003 cycles: 191058061 heartbeat IPC: 0.884435 cumulative IPC: 0.748079 (Simulation time: 0 hr 8 min 21 sec) 
Heartbeat CPU 0 instructions: 190000003 cycles: 201798138 heartbeat IPC: 0.931092 cumulative IPC: 0.758731 (Simulation time: 0 hr 8 min 48 sec) 
Heartbeat CPU 0 instructions: 200000003 cycles: 212536453 heartbeat IPC: 0.931245 cumulative IPC: 0.768219 (Simulation time: 0 hr 9 min 14 sec) 
Heartbeat CPU 0 instructions: 210000000 cycles: 223134008 heartbeat IPC: 0.943614 cumulative IPC: 0.777249 (Simulation time: 0 hr 9 min 40 sec) 
Heartbeat CPU 0 instructions: 220000000 cycles: 233519584 heartbeat IPC: 0.962874 cumulative IPC: 0.786164 (Simulation time: 0 hr 10 min 4 sec) 
Heartbeat CPU 0 instructions: 230000002 cycles: 243839298 heartbeat IPC: 0.969019 cumulative IPC: 0.794493 (Simulation time: 0 hr 10 min 29 sec) 
Heartbeat CPU 0 instructions: 240000002 cycles: 254294963 heartbeat IPC: 0.956419 cumulative IPC: 0.801636 (Simulation time: 0 hr 10 min 54 sec) 
Heartbeat CPU 0 instructions: 250000003 cycles: 264623672 heartbeat IPC: 0.968175 cumulative IPC: 0.80859 (Simulation time: 0 hr 11 min 19 sec) 
Finished CPU 0 instructions: 200000002 cycles: 247344039 cumulative IPC: 0.80859 (Simulation time: 0 hr 11 min 19 sec) 

ChampSim completed all CPUs

Region of Interest Statistics

CPU 0 cumulative IPC: 0.80859 instructions: 200000002 cycles: 247344039
L1D TOTAL     ACCESS:   36518949  HIT:   27724449  MISS:    8794500
L1D LOAD      ACCESS:   11866388  HIT:   11334951  MISS:     531437
L1D RFO       ACCESS:   23851152  HIT:   16389178  MISS:    7461974
L1D PREFETCH  ACCESS:     801409  HIT:        320  MISS:     801089
L1D WRITEBACK ACCESS:          0  HIT:          0  MISS:          0
L1D PREFETCH  REQUESTED:    1590700  ISSUED:    1590700  USEFUL:    1298286  USELESS:          0  LATE:          0
L1D AVERAGE MISS LATENCY: 385.267 cycles
L1D AVERAGE LOAD MISS LATENCY: 318.639 cycles
L1D AVERAGE RFO MISS LATENCY: 379.659 cycles
L1D AVERAGE PREFETCH MISS LATENCY: 481.7 cycles
L1D AVERAGE WRITEBACK MISS LATENCY: -nan cycles
L1I TOTAL     ACCESS:   30517743  HIT:   30517743  MISS:          0
L1I LOAD      ACCESS:   30517743  HIT:   30517743  MISS:          0
L1I RFO       ACCESS:          0  HIT:          0  MISS:          0
L1I PREFETCH  ACCESS:          0  HIT:          0  MISS:          0
L1I WRITEBACK ACCESS:          0  HIT:          0  MISS:          0
L1I PREFETCH  REQUESTED:          0  ISSUED:          0  USEFUL:          0  USELESS:          0  LATE:          0
L1I AVERAGE MISS LATENCY: -nan cycles
L1I AVERAGE LOAD MISS LATENCY: -nan cycles
L1I AVERAGE RFO MISS LATENCY: -nan cycles
L1I AVERAGE PREFETCH MISS LATENCY: -nan cycles
L1I AVERAGE WRITEBACK MISS LATENCY: -nan cycles
L2C TOTAL     ACCESS:   16256470  HIT:   10867254  MISS:    5389216
L2C LOAD      ACCESS:     281704  HIT:          1  MISS:     281703
L2C RFO       ACCESS:    7461974  HIT:    3405364  MISS:    4056610
L2C PREFETCH  ACCESS:    1050823  HIT:          0  MISS:    1050823
L2C WRITEBACK ACCESS:    7461969  HIT:    7461889  MISS:         80
L2C PREFETCH  REQUESTED:          0  ISSUED:          0  USEFUL:          0  USELESS:    1556552  LATE:          0
L2C AVERAGE MISS LATENCY: 630.176 cycles
L2C AVERAGE LOAD MISS LATENCY: 585.295 cycles
L2C AVERAGE RFO MISS LATENCY: 668.515 cycles
L2C AVERAGE PREFETCH MISS LATENCY: 494.25 cycles
L2C AVERAGE WRITEBACK MISS LATENCY: 0 cycles
LLC TOTAL     ACCESS:    9445843  HIT:    4115797  MISS:    5330046
LLC LOAD      ACCESS:     281703  HIT:          0  MISS:     281703
LLC RFO       ACCESS:    4056591  HIT:      59151  MISS:    3997440
LLC PREFETCH  ACCESS:    1050823  HIT:          0  MISS:    1050823
LLC WRITEBACK ACCESS:    4056726  HIT:    4056646  MISS:         80
LLC PREFETCH  REQUESTED:          0  ISSUED:          0  USEFUL:          0  USELESS:    1551593  LATE:          0
LLC AVERAGE MISS LATENCY: 604.869 cycles
LLC AVERAGE LOAD MISS LATENCY: 554.545 cycles
LLC AVERAGE RFO MISS LATENCY: 645.851 cycles
LLC AVERAGE PREFETCH MISS LATENCY: 462.509 cycles
LLC AVERAGE WRITEBACK MISS LATENCY: 0 cycles
Major fault: 0 Minor fault: 61271
L1D WB Stall Cycle: 192441702

DRAM Statistics
 CHANNEL 0
 RQ ROW_BUFFER_HIT:     430233  ROW_BUFFER_MISS:    4899734
 WQ ROW_BUFFER_HIT:     767855  ROW_BUFFER_MISS:    3226647  FULL:          0

 DBUS_CONGESTED:    6149561
 AVG_CONGESTED_CYCLE: 6

CPU 0 Branch Prediction Accuracy: 98.2572% MPKI: 0.21118 Average ROB Occupancy at Mispredict: 209.162

Branch types
NOT_BRANCH: 197576579 98.7883%
BRANCH_DIRECT_JUMP: 120779 0.0603895%
BRANCH_INDIRECT: 0 0%
BRANCH_CONDITIONAL: 2302626 1.15131%
BRANCH_DIRECT_CALL: 0 0%
BRANCH_INDIRECT_CALL: 0 0%
BRANCH_RETURN: 0 0%
BRANCH_OTHER: 0 0%

