
*** ChampSim Multicore Out-of-Order Simulator ***

**************************
Prefetch will query the cache and affect the replacement policy!
**************************
Warmup Instructions: 50000000
Simulation Instructions: 200000000
Number of CPUs: 1
LLC sets: 2048
LLC ways: 16
Off-chip DRAM Size: 4096 MB Channels: 1 Width: 64-bit Data Rate: 3200 MT/s

CPU 0 runs ../traces/621.wrf_s-575B.champsimtrace.xz
CPU 0 Bimodal branch predictor
Heartbeat CPU 0 instructions: 10000000 cycles: 4328691 heartbeat IPC: 2.31017 cumulative IPC: 2.31017 (Simulation time: 0 hr 0 min 19 sec) 
Heartbeat CPU 0 instructions: 20000002 cycles: 8673358 heartbeat IPC: 2.30167 cumulative IPC: 2.30591 (Simulation time: 0 hr 0 min 37 sec) 
Heartbeat CPU 0 instructions: 30000000 cycles: 13029410 heartbeat IPC: 2.29566 cumulative IPC: 2.30248 (Simulation time: 0 hr 0 min 56 sec) 
Heartbeat CPU 0 instructions: 40000002 cycles: 17381283 heartbeat IPC: 2.29786 cumulative IPC: 2.30133 (Simulation time: 0 hr 1 min 15 sec) 
Heartbeat CPU 0 instructions: 50000002 cycles: 21731018 heartbeat IPC: 2.29899 cumulative IPC: 2.30086 (Simulation time: 0 hr 1 min 33 sec) 

Warmup complete CPU 0 instructions: 50000002 cycles: 21731018 (Simulation time: 0 hr 1 min 33 sec) 

Heartbeat CPU 0 instructions: 60000003 cycles: 30983889 heartbeat IPC: 1.08075 cumulative IPC: 1.08075 (Simulation time: 0 hr 1 min 49 sec) 
Heartbeat CPU 0 instructions: 70000000 cycles: 40189813 heartbeat IPC: 1.08626 cumulative IPC: 1.08349 (Simulation time: 0 hr 2 min 6 sec) 
Heartbeat CPU 0 instructions: 80000002 cycles: 49335449 heartbeat IPC: 1.09342 cumulative IPC: 1.08678 (Simulation time: 0 hr 2 min 22 sec) 
Heartbeat CPU 0 instructions: 90000000 cycles: 58511654 heartbeat IPC: 1.08977 cumulative IPC: 1.08753 (Simulation time: 0 hr 2 min 38 sec) 
Heartbeat CPU 0 instructions: 100000001 cycles: 67664539 heartbeat IPC: 1.09255 cumulative IPC: 1.08853 (Simulation time: 0 hr 2 min 54 sec) 
Heartbeat CPU 0 instructions: 110000000 cycles: 76781859 heartbeat IPC: 1.09681 cumulative IPC: 1.0899 (Simulation time: 0 hr 3 min 10 sec) 
Heartbeat CPU 0 instructions: 120000001 cycles: 85826912 heartbeat IPC: 1.10558 cumulative IPC: 1.09211 (Simulation time: 0 hr 3 min 26 sec) 
Heartbeat CPU 0 instructions: 130000000 cycles: 94915574 heartbeat IPC: 1.10027 cumulative IPC: 1.09313 (Simulation time: 0 hr 3 min 41 sec) 
Heartbeat CPU 0 instructions: 140000001 cycles: 103976448 heartbeat IPC: 1.10365 cumulative IPC: 1.09429 (Simulation time: 0 hr 3 min 57 sec) 
Heartbeat CPU 0 instructions: 150000000 cycles: 112913049 heartbeat IPC: 1.11899 cumulative IPC: 1.09671 (Simulation time: 0 hr 4 min 12 sec) 
Heartbeat CPU 0 instructions: 160000002 cycles: 121878747 heartbeat IPC: 1.11536 cumulative IPC: 1.09838 (Simulation time: 0 hr 4 min 28 sec) 
Heartbeat CPU 0 instructions: 170000001 cycles: 130814221 heartbeat IPC: 1.11913 cumulative IPC: 1.10008 (Simulation time: 0 hr 4 min 42 sec) 
Heartbeat CPU 0 instructions: 180000000 cycles: 139773348 heartbeat IPC: 1.11618 cumulative IPC: 1.1013 (Simulation time: 0 hr 4 min 56 sec) 
Heartbeat CPU 0 instructions: 190000003 cycles: 148773784 heartbeat IPC: 1.11106 cumulative IPC: 1.10199 (Simulation time: 0 hr 5 min 11 sec) 
Heartbeat CPU 0 instructions: 200000000 cycles: 157752915 heartbeat IPC: 1.11369 cumulative IPC: 1.10276 (Simulation time: 0 hr 5 min 26 sec) 
Heartbeat CPU 0 instructions: 210000001 cycles: 166631242 heartbeat IPC: 1.12634 cumulative IPC: 1.10421 (Simulation time: 0 hr 5 min 40 sec) 
Heartbeat CPU 0 instructions: 220000000 cycles: 175466949 heartbeat IPC: 1.13177 cumulative IPC: 1.10579 (Simulation time: 0 hr 5 min 55 sec) 
Heartbeat CPU 0 instructions: 230000001 cycles: 184354387 heartbeat IPC: 1.12518 cumulative IPC: 1.10685 (Simulation time: 0 hr 6 min 10 sec) 
Heartbeat CPU 0 instructions: 240000001 cycles: 193299741 heartbeat IPC: 1.1179 cumulative IPC: 1.10743 (Simulation time: 0 hr 6 min 25 sec) 
Heartbeat CPU 0 instructions: 250000001 cycles: 202270823 heartbeat IPC: 1.11469 cumulative IPC: 1.10779 (Simulation time: 0 hr 6 min 41 sec) 
Finished CPU 0 instructions: 200000000 cycles: 180539806 cumulative IPC: 1.10779 (Simulation time: 0 hr 6 min 41 sec) 

ChampSim completed all CPUs

Region of Interest Statistics

CPU 0 cumulative IPC: 1.10779 instructions: 200000000 cycles: 180539806
L1D TOTAL     ACCESS:   34020986  HIT:   34015296  MISS:       5690
L1D LOAD      ACCESS:   26558363  HIT:   26556879  MISS:       1484
L1D RFO       ACCESS:    7460380  HIT:    7457262  MISS:       3118
L1D PREFETCH  ACCESS:       2243  HIT:       1155  MISS:       1088
L1D WRITEBACK ACCESS:          0  HIT:          0  MISS:          0
L1D PREFETCH  REQUESTED:       3179  ISSUED:       3179  USEFUL:       1000  USELESS:         96  LATE:          0
L1D AVERAGE MISS LATENCY: 181.908 cycles
L1D AVERAGE LOAD MISS LATENCY: 108.196 cycles
L1D AVERAGE RFO MISS LATENCY: 211.714 cycles
L1D AVERAGE PREFETCH MISS LATENCY: 197.031 cycles
L1D AVERAGE WRITEBACK MISS LATENCY: -nan cycles
L1I TOTAL     ACCESS:   35115765  HIT:   35114293  MISS:       1472
L1I LOAD      ACCESS:   35115765  HIT:   35114293  MISS:       1472
L1I RFO       ACCESS:          0  HIT:          0  MISS:          0
L1I PREFETCH  ACCESS:          0  HIT:          0  MISS:          0
L1I WRITEBACK ACCESS:          0  HIT:          0  MISS:          0
L1I PREFETCH  REQUESTED:          0  ISSUED:          0  USEFUL:          0  USELESS:          0  LATE:          0
L1I AVERAGE MISS LATENCY: 14.1753 cycles
L1I AVERAGE LOAD MISS LATENCY: 14.1753 cycles
L1I AVERAGE RFO MISS LATENCY: -nan cycles
L1I AVERAGE PREFETCH MISS LATENCY: -nan cycles
L1I AVERAGE WRITEBACK MISS LATENCY: -nan cycles
L2C TOTAL     ACCESS:      11570  HIT:       5952  MISS:       5618
L2C LOAD      ACCESS:       2499  HIT:       1670  MISS:        829
L2C RFO       ACCESS:       3118  HIT:        133  MISS:       2985
L2C PREFETCH  ACCESS:       1907  HIT:        104  MISS:       1803
L2C WRITEBACK ACCESS:       4046  HIT:       4045  MISS:          1
L2C PREFETCH  REQUESTED:          0  ISSUED:          0  USEFUL:        272  USELESS:          8  LATE:          0
L2C AVERAGE MISS LATENCY: 192.856 cycles
L2C AVERAGE LOAD MISS LATENCY: 173.906 cycles
L2C AVERAGE RFO MISS LATENCY: 205.157 cycles
L2C AVERAGE PREFETCH MISS LATENCY: 181.311 cycles
L2C AVERAGE WRITEBACK MISS LATENCY: 0 cycles
LLC TOTAL     ACCESS:       5785  HIT:        168  MISS:       5617
LLC LOAD      ACCESS:        810  HIT:          0  MISS:        810
LLC RFO       ACCESS:       2985  HIT:          0  MISS:       2985
LLC PREFETCH  ACCESS:       1822  HIT:          0  MISS:       1822
LLC WRITEBACK ACCESS:        168  HIT:        168  MISS:          0
LLC PREFETCH  REQUESTED:          0  ISSUED:          0  USEFUL:          0  USELESS:          0  LATE:          0
LLC AVERAGE MISS LATENCY: 161.931 cycles
LLC AVERAGE LOAD MISS LATENCY: 144.074 cycles
LLC AVERAGE RFO MISS LATENCY: 174.824 cycles
LLC AVERAGE PREFETCH MISS LATENCY: 148.748 cycles
LLC AVERAGE WRITEBACK MISS LATENCY: -nan cycles
Major fault: 0 Minor fault: 364
L1D WB Stall Cycle: 581

DRAM Statistics
 CHANNEL 0
 RQ ROW_BUFFER_HIT:       1309  ROW_BUFFER_MISS:       4308
 WQ ROW_BUFFER_HIT:          0  ROW_BUFFER_MISS:          0  FULL:          0

 DBUS_CONGESTED:       1914
 AVG_CONGESTED_CYCLE: 6

CPU 0 Branch Prediction Accuracy: 96.0154% MPKI: 5.34054 Average ROB Occupancy at Mispredict: 89.8466

Branch types
NOT_BRANCH: 173193896 86.5969%
BRANCH_DIRECT_JUMP: 1796498 0.898249%
BRANCH_INDIRECT: 0 0%
BRANCH_CONDITIONAL: 20615493 10.3077%
BRANCH_DIRECT_CALL: 2196902 1.09845%
BRANCH_INDIRECT_CALL: 0 0%
BRANCH_RETURN: 2196901 1.09845%
BRANCH_OTHER: 0 0%

