
*** ChampSim Multicore Out-of-Order Simulator ***

**************************
Prefetch will query the cache and affect the replacement policy!
**************************
Warmup Instructions: 50000000
Simulation Instructions: 200000000
Number of CPUs: 1
LLC sets: 2048
LLC ways: 16
Off-chip DRAM Size: 4096 MB Channels: 1 Width: 64-bit Data Rate: 3200 MT/s

CPU 0 runs ../traces/603.bwaves_s-891B.champsimtrace.xz
CPU 0 Bimodal branch predictor
Heartbeat CPU 0 instructions: 10000000 cycles: 2893088 heartbeat IPC: 3.45651 cumulative IPC: 3.45651 (Simulation time: 0 hr 0 min 16 sec) 
Heartbeat CPU 0 instructions: 20000000 cycles: 5785983 heartbeat IPC: 3.45674 cumulative IPC: 3.45663 (Simulation time: 0 hr 0 min 31 sec) 
Heartbeat CPU 0 instructions: 30000000 cycles: 8679026 heartbeat IPC: 3.45657 cumulative IPC: 3.45661 (Simulation time: 0 hr 0 min 47 sec) 
Heartbeat CPU 0 instructions: 40000001 cycles: 11572080 heartbeat IPC: 3.45656 cumulative IPC: 3.4566 (Simulation time: 0 hr 1 min 2 sec) 
Heartbeat CPU 0 instructions: 50000002 cycles: 14541433 heartbeat IPC: 3.36774 cumulative IPC: 3.43845 (Simulation time: 0 hr 1 min 12 sec) 

Warmup complete CPU 0 instructions: 50000002 cycles: 14541433 (Simulation time: 0 hr 1 min 12 sec) 

Heartbeat CPU 0 instructions: 60000003 cycles: 26688980 heartbeat IPC: 0.823212 cumulative IPC: 0.823212 (Simulation time: 0 hr 1 min 27 sec) 
Heartbeat CPU 0 instructions: 70000001 cycles: 38830334 heartbeat IPC: 0.823631 cumulative IPC: 0.823421 (Simulation time: 0 hr 1 min 43 sec) 
Heartbeat CPU 0 instructions: 80000002 cycles: 50975877 heartbeat IPC: 0.823347 cumulative IPC: 0.823397 (Simulation time: 0 hr 1 min 58 sec) 
Heartbeat CPU 0 instructions: 90000001 cycles: 63116557 heartbeat IPC: 0.823677 cumulative IPC: 0.823467 (Simulation time: 0 hr 2 min 14 sec) 
Heartbeat CPU 0 instructions: 100000002 cycles: 75259402 heartbeat IPC: 0.82353 cumulative IPC: 0.823479 (Simulation time: 0 hr 2 min 30 sec) 
Heartbeat CPU 0 instructions: 110000000 cycles: 87400473 heartbeat IPC: 0.82365 cumulative IPC: 0.823508 (Simulation time: 0 hr 2 min 45 sec) 
Heartbeat CPU 0 instructions: 120000001 cycles: 99545972 heartbeat IPC: 0.82335 cumulative IPC: 0.823485 (Simulation time: 0 hr 3 min 1 sec) 
Heartbeat CPU 0 instructions: 130000000 cycles: 111693021 heartbeat IPC: 0.823245 cumulative IPC: 0.823455 (Simulation time: 0 hr 3 min 16 sec) 
Heartbeat CPU 0 instructions: 140000001 cycles: 123841761 heartbeat IPC: 0.823131 cumulative IPC: 0.823419 (Simulation time: 0 hr 3 min 32 sec) 
Heartbeat CPU 0 instructions: 150000001 cycles: 135984410 heartbeat IPC: 0.823544 cumulative IPC: 0.823432 (Simulation time: 0 hr 3 min 47 sec) 
Heartbeat CPU 0 instructions: 160000002 cycles: 148129756 heartbeat IPC: 0.823361 cumulative IPC: 0.823425 (Simulation time: 0 hr 4 min 3 sec) 
Heartbeat CPU 0 instructions: 170000000 cycles: 160339037 heartbeat IPC: 0.819049 cumulative IPC: 0.823059 (Simulation time: 0 hr 4 min 18 sec) 
Heartbeat CPU 0 instructions: 180000002 cycles: 172656474 heartbeat IPC: 0.811857 cumulative IPC: 0.822186 (Simulation time: 0 hr 4 min 34 sec) 
Heartbeat CPU 0 instructions: 190000002 cycles: 196574650 heartbeat IPC: 0.418092 cumulative IPC: 0.76909 (Simulation time: 0 hr 4 min 55 sec) 
Heartbeat CPU 0 instructions: 200000002 cycles: 233986076 heartbeat IPC: 0.267298 cumulative IPC: 0.683544 (Simulation time: 0 hr 5 min 23 sec) 
Heartbeat CPU 0 instructions: 210000002 cycles: 271397843 heartbeat IPC: 0.267296 cumulative IPC: 0.622916 (Simulation time: 0 hr 5 min 51 sec) 
Heartbeat CPU 0 instructions: 220000000 cycles: 308809547 heartbeat IPC: 0.267296 cumulative IPC: 0.577704 (Simulation time: 0 hr 6 min 19 sec) 
Heartbeat CPU 0 instructions: 230000000 cycles: 346221857 heartbeat IPC: 0.267292 cumulative IPC: 0.542691 (Simulation time: 0 hr 6 min 48 sec) 
Heartbeat CPU 0 instructions: 240000002 cycles: 383633958 heartbeat IPC: 0.267293 cumulative IPC: 0.514776 (Simulation time: 0 hr 7 min 16 sec) 
Heartbeat CPU 0 instructions: 250000002 cycles: 421046408 heartbeat IPC: 0.267291 cumulative IPC: 0.491999 (Simulation time: 0 hr 7 min 42 sec) 
Finished CPU 0 instructions: 200000000 cycles: 406504975 cumulative IPC: 0.491999 (Simulation time: 0 hr 7 min 42 sec) 

ChampSim completed all CPUs

Region of Interest Statistics

CPU 0 cumulative IPC: 0.491999 instructions: 200000000 cycles: 406504975
L1D TOTAL     ACCESS:   13700399  HIT:    9839315  MISS:    3861084
L1D LOAD      ACCESS:   10324577  HIT:    6463495  MISS:    3861082
L1D RFO       ACCESS:    3375822  HIT:    3375820  MISS:          2
L1D PREFETCH  ACCESS:          0  HIT:          0  MISS:          0
L1D WRITEBACK ACCESS:          0  HIT:          0  MISS:          0
L1D PREFETCH  REQUESTED:          0  ISSUED:          0  USEFUL:          0  USELESS:          0  LATE:          0
L1D AVERAGE MISS LATENCY: 162.833 cycles
L1D AVERAGE LOAD MISS LATENCY: 162.833 cycles
L1D AVERAGE RFO MISS LATENCY: 219.5 cycles
L1D AVERAGE PREFETCH MISS LATENCY: -nan cycles
L1D AVERAGE WRITEBACK MISS LATENCY: -nan cycles
L1I TOTAL     ACCESS:   31516811  HIT:   31516804  MISS:          7
L1I LOAD      ACCESS:   31516811  HIT:   31516804  MISS:          7
L1I RFO       ACCESS:          0  HIT:          0  MISS:          0
L1I PREFETCH  ACCESS:          0  HIT:          0  MISS:          0
L1I WRITEBACK ACCESS:          0  HIT:          0  MISS:          0
L1I PREFETCH  REQUESTED:          0  ISSUED:          0  USEFUL:          0  USELESS:          0  LATE:          0
L1I AVERAGE MISS LATENCY: 217 cycles
L1I AVERAGE LOAD MISS LATENCY: 217 cycles
L1I AVERAGE RFO MISS LATENCY: -nan cycles
L1I AVERAGE PREFETCH MISS LATENCY: -nan cycles
L1I AVERAGE WRITEBACK MISS LATENCY: -nan cycles
L2C TOTAL     ACCESS:    3861095  HIT:         42  MISS:    3861053
L2C LOAD      ACCESS:    3861089  HIT:         41  MISS:    3861048
L2C RFO       ACCESS:          2  HIT:          0  MISS:          2
L2C PREFETCH  ACCESS:          0  HIT:          0  MISS:          0
L2C WRITEBACK ACCESS:          4  HIT:          1  MISS:          3
L2C PREFETCH  REQUESTED:          0  ISSUED:          0  USEFUL:          0  USELESS:          0  LATE:          0
L2C AVERAGE MISS LATENCY: 147.807 cycles
L2C AVERAGE LOAD MISS LATENCY: 147.808 cycles
L2C AVERAGE RFO MISS LATENCY: 204.5 cycles
L2C AVERAGE PREFETCH MISS LATENCY: -nan cycles
L2C AVERAGE WRITEBACK MISS LATENCY: 0 cycles
LLC TOTAL     ACCESS:    3861054  HIT:        829  MISS:    3860225
LLC LOAD      ACCESS:    3861048  HIT:        828  MISS:    3860220
LLC RFO       ACCESS:          2  HIT:          0  MISS:          2
LLC PREFETCH  ACCESS:          0  HIT:          0  MISS:          0
LLC WRITEBACK ACCESS:          4  HIT:          1  MISS:          3
LLC PREFETCH  REQUESTED:          0  ISSUED:          0  USEFUL:          0  USELESS:          0  LATE:          0
LLC AVERAGE MISS LATENCY: 117.038 cycles
LLC AVERAGE LOAD MISS LATENCY: 117.038 cycles
LLC AVERAGE RFO MISS LATENCY: 174.5 cycles
LLC AVERAGE PREFETCH MISS LATENCY: -nan cycles
LLC AVERAGE WRITEBACK MISS LATENCY: 0 cycles
Major fault: 0 Minor fault: 62016
L1D WB Stall Cycle: 0

DRAM Statistics
 CHANNEL 0
 RQ ROW_BUFFER_HIT:    2083164  ROW_BUFFER_MISS:    1777058
 WQ ROW_BUFFER_HIT:          2  ROW_BUFFER_MISS:          0  FULL:          0

 DBUS_CONGESTED:       7014
 AVG_CONGESTED_CYCLE: 1

CPU 0 Branch Prediction Accuracy: 85.6193% MPKI: 24.1032 Average ROB Occupancy at Mispredict: 94.0162

Branch types
NOT_BRANCH: 166478420 83.2392%
BRANCH_DIRECT_JUMP: 1387294 0.693647%
BRANCH_INDIRECT: 0 0%
BRANCH_CONDITIONAL: 32134358 16.0672%
BRANCH_DIRECT_CALL: 0 0%
BRANCH_INDIRECT_CALL: 0 0%
BRANCH_RETURN: 0 0%
BRANCH_OTHER: 0 0%

