
*** ChampSim Multicore Out-of-Order Simulator ***

**************************
Prefetch will query the cache and affect the replacement policy!
**************************
Warmup Instructions: 50000000
Simulation Instructions: 200000000
Number of CPUs: 1
LLC sets: 2048
LLC ways: 16
Off-chip DRAM Size: 4096 MB Channels: 1 Width: 64-bit Data Rate: 3200 MT/s

CPU 0 runs ../traces/605.mcf_s-472B.champsimtrace.xz
CPU 0 Bimodal branch predictor
Heartbeat CPU 0 instructions: 10000001 cycles: 4243928 heartbeat IPC: 2.35631 cumulative IPC: 2.35631 (Simulation time: 0 hr 0 min 25 sec) 
Heartbeat CPU 0 instructions: 20000000 cycles: 8625605 heartbeat IPC: 2.28223 cumulative IPC: 2.31868 (Simulation time: 0 hr 0 min 51 sec) 
Heartbeat CPU 0 instructions: 30000003 cycles: 13090730 heartbeat IPC: 2.23958 cumulative IPC: 2.2917 (Simulation time: 0 hr 1 min 17 sec) 
Heartbeat CPU 0 instructions: 40000001 cycles: 17363166 heartbeat IPC: 2.34058 cumulative IPC: 2.30373 (Simulation time: 0 hr 1 min 43 sec) 
Heartbeat CPU 0 instructions: 50000001 cycles: 21650894 heartbeat IPC: 2.33224 cumulative IPC: 2.30937 (Simulation time: 0 hr 2 min 8 sec) 

Warmup complete CPU 0 instructions: 50000001 cycles: 21650894 (Simulation time: 0 hr 2 min 8 sec) 

Heartbeat CPU 0 instructions: 60000001 cycles: 57628930 heartbeat IPC: 0.277947 cumulative IPC: 0.277947 (Simulation time: 0 hr 2 min 48 sec) 
Heartbeat CPU 0 instructions: 70000002 cycles: 90857460 heartbeat IPC: 0.300946 cumulative IPC: 0.28899 (Simulation time: 0 hr 3 min 25 sec) 
Heartbeat CPU 0 instructions: 80000003 cycles: 135211149 heartbeat IPC: 0.22546 cumulative IPC: 0.264177 (Simulation time: 0 hr 4 min 10 sec) 
Heartbeat CPU 0 instructions: 90000000 cycles: 167577821 heartbeat IPC: 0.30896 cumulative IPC: 0.27411 (Simulation time: 0 hr 4 min 47 sec) 
Heartbeat CPU 0 instructions: 100000002 cycles: 208730944 heartbeat IPC: 0.242995 cumulative IPC: 0.267265 (Simulation time: 0 hr 5 min 30 sec) 
Heartbeat CPU 0 instructions: 110000000 cycles: 240421758 heartbeat IPC: 0.315549 cumulative IPC: 0.27426 (Simulation time: 0 hr 6 min 7 sec) 
Heartbeat CPU 0 instructions: 120000002 cycles: 277818589 heartbeat IPC: 0.267402 cumulative IPC: 0.273259 (Simulation time: 0 hr 6 min 47 sec) 
Heartbeat CPU 0 instructions: 130000003 cycles: 317052472 heartbeat IPC: 0.254882 cumulative IPC: 0.270818 (Simulation time: 0 hr 7 min 28 sec) 
Heartbeat CPU 0 instructions: 140000003 cycles: 357596152 heartbeat IPC: 0.246648 cumulative IPC: 0.267901 (Simulation time: 0 hr 8 min 7 sec) 
Heartbeat CPU 0 instructions: 150000001 cycles: 397765223 heartbeat IPC: 0.248948 cumulative IPC: 0.265877 (Simulation time: 0 hr 8 min 45 sec) 
Heartbeat CPU 0 instructions: 160000002 cycles: 435012850 heartbeat IPC: 0.268474 cumulative IPC: 0.266111 (Simulation time: 0 hr 9 min 22 sec) 
Heartbeat CPU 0 instructions: 170000001 cycles: 469540555 heartbeat IPC: 0.289622 cumulative IPC: 0.267923 (Simulation time: 0 hr 9 min 57 sec) 
Heartbeat CPU 0 instructions: 180000000 cycles: 500951333 heartbeat IPC: 0.318362 cumulative IPC: 0.271229 (Simulation time: 0 hr 10 min 31 sec) 
Heartbeat CPU 0 instructions: 190000000 cycles: 547556396 heartbeat IPC: 0.214569 cumulative IPC: 0.266208 (Simulation time: 0 hr 11 min 11 sec) 
Heartbeat CPU 0 instructions: 200000001 cycles: 583903543 heartbeat IPC: 0.275125 cumulative IPC: 0.266784 (Simulation time: 0 hr 11 min 45 sec) 
Heartbeat CPU 0 instructions: 210000001 cycles: 619189239 heartbeat IPC: 0.283401 cumulative IPC: 0.267765 (Simulation time: 0 hr 12 min 17 sec) 
Heartbeat CPU 0 instructions: 220000000 cycles: 658304727 heartbeat IPC: 0.255653 cumulative IPC: 0.267021 (Simulation time: 0 hr 12 min 53 sec) 
Heartbeat CPU 0 instructions: 230000002 cycles: 696100628 heartbeat IPC: 0.264579 cumulative IPC: 0.266884 (Simulation time: 0 hr 13 min 27 sec) 
Heartbeat CPU 0 instructions: 240000002 cycles: 730258689 heartbeat IPC: 0.292757 cumulative IPC: 0.268131 (Simulation time: 0 hr 14 min 0 sec) 
Heartbeat CPU 0 instructions: 250000001 cycles: 745876952 heartbeat IPC: 0.640276 cumulative IPC: 0.276157 (Simulation time: 0 hr 14 min 25 sec) 
Finished CPU 0 instructions: 200000000 cycles: 724226058 cumulative IPC: 0.276157 (Simulation time: 0 hr 14 min 25 sec) 

ChampSim completed all CPUs

Region of Interest Statistics

CPU 0 cumulative IPC: 0.276157 instructions: 200000000 cycles: 724226058
L1D TOTAL     ACCESS:   86905029  HIT:   76434139  MISS:   10470890
L1D LOAD      ACCESS:   42487811  HIT:   32453958  MISS:   10033853
L1D RFO       ACCESS:   44417218  HIT:   43980181  MISS:     437037
L1D PREFETCH  ACCESS:          0  HIT:          0  MISS:          0
L1D WRITEBACK ACCESS:          0  HIT:          0  MISS:          0
L1D PREFETCH  REQUESTED:          0  ISSUED:          0  USEFUL:          0  USELESS:          0  LATE:          0
L1D AVERAGE MISS LATENCY: 182.919 cycles
L1D AVERAGE LOAD MISS LATENCY: 181.832 cycles
L1D AVERAGE RFO MISS LATENCY: 207.877 cycles
L1D AVERAGE PREFETCH MISS LATENCY: -nan cycles
L1D AVERAGE WRITEBACK MISS LATENCY: -nan cycles
L1I TOTAL     ACCESS:   43083954  HIT:   43083948  MISS:          6
L1I LOAD      ACCESS:   43083954  HIT:   43083948  MISS:          6
L1I RFO       ACCESS:          0  HIT:          0  MISS:          0
L1I PREFETCH  ACCESS:          0  HIT:          0  MISS:          0
L1I WRITEBACK ACCESS:          0  HIT:          0  MISS:          0
L1I PREFETCH  REQUESTED:          0  ISSUED:          0  USEFUL:          0  USELESS:          0  LATE:          0
L1I AVERAGE MISS LATENCY: 198.333 cycles
L1I AVERAGE LOAD MISS LATENCY: 198.333 cycles
L1I AVERAGE RFO MISS LATENCY: -nan cycles
L1I AVERAGE PREFETCH MISS LATENCY: -nan cycles
L1I AVERAGE WRITEBACK MISS LATENCY: -nan cycles
L2C TOTAL     ACCESS:   11417314  HIT:    1071594  MISS:   10345720
L2C LOAD      ACCESS:   10033826  HIT:     121799  MISS:    9912027
L2C RFO       ACCESS:     437024  HIT:       8395  MISS:     428629
L2C PREFETCH  ACCESS:          0  HIT:          0  MISS:          0
L2C WRITEBACK ACCESS:     946464  HIT:     941400  MISS:       5064
L2C PREFETCH  REQUESTED:          0  ISSUED:          0  USEFUL:          0  USELESS:          0  LATE:          0
L2C AVERAGE MISS LATENCY: 168.469 cycles
L2C AVERAGE LOAD MISS LATENCY: 167.374 cycles
L2C AVERAGE RFO MISS LATENCY: 195.783 cycles
L2C AVERAGE PREFETCH MISS LATENCY: -nan cycles
L2C AVERAGE WRITEBACK MISS LATENCY: 0 cycles
LLC TOTAL     ACCESS:   11192727  HIT:     857206  MISS:   10335521
LLC LOAD      ACCESS:    9912029  HIT:       8059  MISS:    9903970
LLC RFO       ACCESS:     428629  HIT:        322  MISS:     428307
LLC PREFETCH  ACCESS:          0  HIT:          0  MISS:          0
LLC WRITEBACK ACCESS:     852069  HIT:     848825  MISS:       3244
LLC PREFETCH  REQUESTED:          0  ISSUED:          0  USEFUL:          0  USELESS:          0  LATE:          0
LLC AVERAGE MISS LATENCY: 136.671 cycles
LLC AVERAGE LOAD MISS LATENCY: 135.475 cycles
LLC AVERAGE RFO MISS LATENCY: 165.37 cycles
LLC AVERAGE PREFETCH MISS LATENCY: -nan cycles
LLC AVERAGE WRITEBACK MISS LATENCY: 0 cycles
Major fault: 0 Minor fault: 63676
L1D WB Stall Cycle: 0

DRAM Statistics
 CHANNEL 0
 RQ ROW_BUFFER_HIT:    5692911  ROW_BUFFER_MISS:    4639362
 WQ ROW_BUFFER_HIT:     431125  ROW_BUFFER_MISS:     414269  FULL:          0

 DBUS_CONGESTED:    3058803
 AVG_CONGESTED_CYCLE: 6

CPU 0 Branch Prediction Accuracy: 98.5833% MPKI: 1.82583 Average ROB Occupancy at Mispredict: 192.812

Branch types
NOT_BRANCH: 174224601 87.1123%
BRANCH_DIRECT_JUMP: 2120382 1.06019%
BRANCH_INDIRECT: 0 0%
BRANCH_CONDITIONAL: 23654531 11.8273%
BRANCH_DIRECT_CALL: 241 0.0001205%
BRANCH_INDIRECT_CALL: 0 0%
BRANCH_RETURN: 240 0.00012%
BRANCH_OTHER: 0 0%

