
*** ChampSim Multicore Out-of-Order Simulator ***

**************************
Prefetch will query the cache and affect the replacement policy!
**************************
Warmup Instructions: 50000000
Simulation Instructions: 200000000
Number of CPUs: 1
LLC sets: 2048
LLC ways: 16
Off-chip DRAM Size: 4096 MB Channels: 1 Width: 64-bit Data Rate: 3200 MT/s

CPU 0 runs ../traces/619.lbm_s-2676B.champsimtrace.xz
CPU 0 Bimodal branch predictor
Heartbeat CPU 0 instructions: 10000003 cycles: 3497994 heartbeat IPC: 2.85878 cumulative IPC: 2.85878 (Simulation time: 0 hr 0 min 23 sec) 
Heartbeat CPU 0 instructions: 20000003 cycles: 6986509 heartbeat IPC: 2.86655 cumulative IPC: 2.86266 (Simulation time: 0 hr 0 min 45 sec) 
Heartbeat CPU 0 instructions: 30000000 cycles: 10463060 heartbeat IPC: 2.87641 cumulative IPC: 2.86723 (Simulation time: 0 hr 1 min 7 sec) 
Heartbeat CPU 0 instructions: 40000001 cycles: 13915096 heartbeat IPC: 2.89684 cumulative IPC: 2.87458 (Simulation time: 0 hr 1 min 30 sec) 
Heartbeat CPU 0 instructions: 50000001 cycles: 17345751 heartbeat IPC: 2.9149 cumulative IPC: 2.88255 (Simulation time: 0 hr 1 min 52 sec) 

Warmup complete CPU 0 instructions: 50000001 cycles: 17345751 (Simulation time: 0 hr 1 min 52 sec) 

Heartbeat CPU 0 instructions: 60000002 cycles: 37691663 heartbeat IPC: 0.491499 cumulative IPC: 0.491499 (Simulation time: 0 hr 2 min 28 sec) 
Heartbeat CPU 0 instructions: 70000001 cycles: 57226514 heartbeat IPC: 0.511906 cumulative IPC: 0.501495 (Simulation time: 0 hr 3 min 4 sec) 
Heartbeat CPU 0 instructions: 80000002 cycles: 75418366 heartbeat IPC: 0.549697 cumulative IPC: 0.516595 (Simulation time: 0 hr 3 min 38 sec) 
Heartbeat CPU 0 instructions: 90000003 cycles: 93562828 heartbeat IPC: 0.551132 cumulative IPC: 0.524817 (Simulation time: 0 hr 4 min 12 sec) 
Heartbeat CPU 0 instructions: 100000001 cycles: 110739225 heartbeat IPC: 0.582194 cumulative IPC: 0.535369 (Simulation time: 0 hr 4 min 45 sec) 
Heartbeat CPU 0 instructions: 110000000 cycles: 127709528 heartbeat IPC: 0.589265 cumulative IPC: 0.543657 (Simulation time: 0 hr 5 min 19 sec) 
Heartbeat CPU 0 instructions: 120000003 cycles: 144075430 heartbeat IPC: 0.611027 cumulative IPC: 0.552357 (Simulation time: 0 hr 5 min 51 sec) 
Heartbeat CPU 0 instructions: 130000003 cycles: 159944745 heartbeat IPC: 0.630147 cumulative IPC: 0.561014 (Simulation time: 0 hr 6 min 23 sec) 
Heartbeat CPU 0 instructions: 140000003 cycles: 175535995 heartbeat IPC: 0.641385 cumulative IPC: 0.568935 (Simulation time: 0 hr 6 min 54 sec) 
Heartbeat CPU 0 instructions: 150000001 cycles: 190849372 heartbeat IPC: 0.653024 cumulative IPC: 0.576357 (Simulation time: 0 hr 7 min 25 sec) 
Heartbeat CPU 0 instructions: 160000003 cycles: 205630439 heartbeat IPC: 0.676541 cumulative IPC: 0.584222 (Simulation time: 0 hr 7 min 53 sec) 
Heartbeat CPU 0 instructions: 170000003 cycles: 220389106 heartbeat IPC: 0.677568 cumulative IPC: 0.591007 (Simulation time: 0 hr 8 min 21 sec) 
Heartbeat CPU 0 instructions: 180000001 cycles: 235094352 heartbeat IPC: 0.680029 cumulative IPC: 0.597019 (Simulation time: 0 hr 8 min 49 sec) 
Heartbeat CPU 0 instructions: 190000003 cycles: 249426771 heartbeat IPC: 0.697719 cumulative IPC: 0.603238 (Simulation time: 0 hr 9 min 17 sec) 
Heartbeat CPU 0 instructions: 200000002 cycles: 263708452 heartbeat IPC: 0.700198 cumulative IPC: 0.608858 (Simulation time: 0 hr 9 min 44 sec) 
Heartbeat CPU 0 instructions: 210000000 cycles: 277691656 heartbeat IPC: 0.715144 cumulative IPC: 0.614567 (Simulation time: 0 hr 10 min 12 sec) 
Heartbeat CPU 0 instructions: 220000000 cycles: 291734647 heartbeat IPC: 0.712099 cumulative IPC: 0.619559 (Simulation time: 0 hr 10 min 38 sec) 
Heartbeat CPU 0 instructions: 230000002 cycles: 305565483 heartbeat IPC: 0.723022 cumulative IPC: 0.624524 (Simulation time: 0 hr 11 min 4 sec) 
Heartbeat CPU 0 instructions: 240000001 cycles: 319425899 heartbeat IPC: 0.721479 cumulative IPC: 0.628972 (Simulation time: 0 hr 11 min 29 sec) 
Heartbeat CPU 0 instructions: 250000003 cycles: 333261134 heartbeat IPC: 0.722792 cumulative IPC: 0.633081 (Simulation time: 0 hr 11 min 55 sec) 
Finished CPU 0 instructions: 200000002 cycles: 315915383 cumulative IPC: 0.633081 (Simulation time: 0 hr 11 min 55 sec) 

ChampSim completed all CPUs

Region of Interest Statistics

CPU 0 cumulative IPC: 0.633081 instructions: 200000002 cycles: 315915383
L1D TOTAL     ACCESS:   46916281  HIT:   38121770  MISS:    8794511
L1D LOAD      ACCESS:   15831649  HIT:   14499118  MISS:    1332531
L1D RFO       ACCESS:   31084632  HIT:   23622652  MISS:    7461980
L1D PREFETCH  ACCESS:          0  HIT:          0  MISS:          0
L1D WRITEBACK ACCESS:          0  HIT:          0  MISS:          0
L1D PREFETCH  REQUESTED:          0  ISSUED:          0  USEFUL:          0  USELESS:          0  LATE:          0
L1D AVERAGE MISS LATENCY: 276.462 cycles
L1D AVERAGE LOAD MISS LATENCY: 437.393 cycles
L1D AVERAGE RFO MISS LATENCY: 247.724 cycles
L1D AVERAGE PREFETCH MISS LATENCY: -nan cycles
L1D AVERAGE WRITEBACK MISS LATENCY: -nan cycles
L1I TOTAL     ACCESS:   30784063  HIT:   30784063  MISS:          0
L1I LOAD      ACCESS:   30784063  HIT:   30784063  MISS:          0
L1I RFO       ACCESS:          0  HIT:          0  MISS:          0
L1I PREFETCH  ACCESS:          0  HIT:          0  MISS:          0
L1I WRITEBACK ACCESS:          0  HIT:          0  MISS:          0
L1I PREFETCH  REQUESTED:          0  ISSUED:          0  USEFUL:          0  USELESS:          0  LATE:          0
L1I AVERAGE MISS LATENCY: -nan cycles
L1I AVERAGE LOAD MISS LATENCY: -nan cycles
L1I AVERAGE RFO MISS LATENCY: -nan cycles
L1I AVERAGE PREFETCH MISS LATENCY: -nan cycles
L1I AVERAGE WRITEBACK MISS LATENCY: -nan cycles
L2C TOTAL     ACCESS:   16256489  HIT:   10867344  MISS:    5389145
L2C LOAD      ACCESS:    1332531  HIT:          2  MISS:    1332529
L2C RFO       ACCESS:    7461979  HIT:    3405443  MISS:    4056536
L2C PREFETCH  ACCESS:          0  HIT:          0  MISS:          0
L2C WRITEBACK ACCESS:    7461979  HIT:    7461899  MISS:         80
L2C PREFETCH  REQUESTED:          0  ISSUED:          0  USEFUL:          0  USELESS:          0  LATE:          0
L2C AVERAGE MISS LATENCY: 423.339 cycles
L2C AVERAGE LOAD MISS LATENCY: 420.965 cycles
L2C AVERAGE RFO MISS LATENCY: 424.127 cycles
L2C AVERAGE PREFETCH MISS LATENCY: -nan cycles
L2C AVERAGE WRITEBACK MISS LATENCY: 0 cycles
LLC TOTAL     ACCESS:    9445717  HIT:    4115663  MISS:    5330054
LLC LOAD      ACCESS:    1332529  HIT:          0  MISS:    1332529
LLC RFO       ACCESS:    4056537  HIT:      59091  MISS:    3997446
LLC PREFETCH  ACCESS:          0  HIT:          0  MISS:          0
LLC WRITEBACK ACCESS:    4056651  HIT:    4056572  MISS:         79
LLC PREFETCH  REQUESTED:          0  ISSUED:          0  USEFUL:          0  USELESS:          0  LATE:          0
LLC AVERAGE MISS LATENCY: 396.946 cycles
LLC AVERAGE LOAD MISS LATENCY: 390.528 cycles
LLC AVERAGE RFO MISS LATENCY: 399.093 cycles
LLC AVERAGE PREFETCH MISS LATENCY: -nan cycles
LLC AVERAGE WRITEBACK MISS LATENCY: 0 cycles
Major fault: 0 Minor fault: 61271
L1D WB Stall Cycle: 27081847

DRAM Statistics
 CHANNEL 0
 RQ ROW_BUFFER_HIT:     236903  ROW_BUFFER_MISS:    5093073
 WQ ROW_BUFFER_HIT:    1206076  ROW_BUFFER_MISS:    2788433  FULL:          0

 DBUS_CONGESTED:    5136732
 AVG_CONGESTED_CYCLE: 6

CPU 0 Branch Prediction Accuracy: 98.2572% MPKI: 0.21118 Average ROB Occupancy at Mispredict: 237.341

Branch types
NOT_BRANCH: 197576592 98.7883%
BRANCH_DIRECT_JUMP: 120779 0.0603895%
BRANCH_INDIRECT: 0 0%
BRANCH_CONDITIONAL: 2302626 1.15131%
BRANCH_DIRECT_CALL: 0 0%
BRANCH_INDIRECT_CALL: 0 0%
BRANCH_RETURN: 0 0%
BRANCH_OTHER: 0 0%

